<routes>
   <vType id="type1" accel="0.8" decel="4.5" sigma="0.5" length="5" maxSpeed="70"/>
   <vehicle id="f9643897f57a000c2facc2fe39de8947_2" type="type1" depart="7.0" color="1,1,0" departPos="40.7449950522" departSpeed="8.7" 				arrivalPos="0.970244156267">
      <route edges="edgeL-4-3 edgeL-3-2"/>
   </vehicle>
   <vehicle id="b30d752005d4392f8b4bfbdee2d54710_0" type="type1" depart="10.0" color="1,1,0" departPos="60.0556580098" departSpeed="16.5" 				arrivalPos="19.551258398">
      <route edges="edgeL-6_1-6 edgeL-6-6_0"/>
   </vehicle>
   <vehicle id="c243b97c579b441827b59ade5f9c5c3b_0" type="type1" depart="12.0" color="1,1,0" departPos="19.1855628246" departSpeed="10.1" 				arrivalPos="326.729460283">
      <route edges="edgeL-2-3"/>
   </vehicle>
   <vehicle id="03105e580fe53482e2a4b85def9d7a0a_0" type="type1" depart="29.0" color="1,1,0" departPos="173.290734747" departSpeed="15.8" 				arrivalPos="43.7475317525">
      <route edges="edgeL-7_1-7 edgeL-7-6"/>
   </vehicle>
   <vehicle id="c00a55ffd526f9bacbb3529888531af5_6" type="type1" depart="35.0" color="1,1,0" departPos="111.577485725" departSpeed="5.6" 				arrivalPos="34.8193985008">
      <route edges="edgeL-7_0-7 edgeL-7-6"/>
   </vehicle>
   <vehicle id="f9643897f57a000c2facc2fe39de8947_1" type="type1" depart="43.0" color="1,1,0" departPos="31.5308239926" departSpeed="13.4" 				arrivalPos="327.431160565">
      <route edges="edgeL-3-2"/>
   </vehicle>
   <vehicle id="ccb96aad4d317f06f0635034c5fd7a24_0" type="type1" depart="46.0" color="1,1,0" departPos="8.04991960428" departSpeed="11.9" 				arrivalPos="59.3194130845">
      <route edges="edgeL-7-6 edgeL-6-5"/>
   </vehicle>
   <vehicle id="7e7c25369cbe90a226886a17a2d0cde0_0" type="type1" depart="63.0" color="1,1,0" departPos="437.989866542" departSpeed="8.2" 				arrivalPos="554.374013084">
      <route edges="edgeL-1-2"/>
   </vehicle>
   <vehicle id="44059ba1faca1e97e9c6483a53c949ea_0" type="type1" depart="89.0" color="1,1,0" departPos="68.3864522943" departSpeed="10.8" 				arrivalPos="396.427085095">
      <route edges="edgeL-6_0-6"/>
   </vehicle>
   <vehicle id="e8fd86a18047027718c43ee21f41f813_0" type="type1" depart="101.0" color="1,1,0" departPos="32.350387997" departSpeed="6.9" 				arrivalPos="12.8408564121">
      <route edges="edgeL-6-7 edgeL-7-7_2"/>
   </vehicle>
   <vehicle id="e526ed375bc779c447fb1b4d77c5dcc6_0" type="type1" depart="112.0" color="1,1,0" departPos="37.1443205304" departSpeed="10.4" 				arrivalPos="458.265303169">
      <route edges="edgeL-4_0-4"/>
   </vehicle>
   <vehicle id="4d5b41878ac4c91f9b9ffe2cf99ab0c7_5" type="type1" depart="120.0" color="1,1,0" departPos="615.267465736" departSpeed="17.4" 				arrivalPos="824.230560039">
      <route edges="edgeL-7-6"/>
   </vehicle>
   <vehicle id="e99fc29d026d5d48bc71d9ebed62d4c9_0" type="type1" depart="123.0" color="1,1,0" departPos="51.1143920836" departSpeed="9.9" 				arrivalPos="54.453486493">
      <route edges="edgeL-6-7 edgeL-7-7_1"/>
   </vehicle>
   <vehicle id="e63dc248f75959e003824cce56e9b138_3" type="type1" depart="124.0" color="1,1,0" departPos="1.3375794601" departSpeed="13.4" 				arrivalPos="0.898052976589">
      <route edges="edgeL-5-4 edgeL-4-3"/>
   </vehicle>
   <vehicle id="176f2f10ad096856d983fdc915fde457_0" type="type1" depart="126.0" color="1,1,0" departPos="8.43074125908" departSpeed="18.2" 				arrivalPos="54.453486493">
      <route edges="edgeL-5-6 edgeL-6-7 edgeL-7-7_1"/>
   </vehicle>
   <vehicle id="91e1720e5be7f8de0f348ccd0e507abb_0" type="type1" depart="128.0" color="1,1,0" departPos="8.47668536978" departSpeed="9.5" 				arrivalPos="19.9392710749">
      <route edges="edgeL-5-4 edgeL-4-3"/>
   </vehicle>
   <vehicle id="7f8aebf3c57b10678dfc08f7312345a9_0" type="type1" depart="133.0" color="1,1,0" departPos="10.0378766719" departSpeed="15.8" 				arrivalPos="56.2389877893">
      <route edges="edgeL-5-6 edgeL-6-7 edgeL-7-7_1"/>
   </vehicle>
   <vehicle id="2eb9f459764d7dea62a7c28cdc7cc6c0_3" type="type1" depart="141.0" color="1,1,0" departPos="0.628920095882" departSpeed="10.1" 				arrivalPos="5.30931531336">
      <route edges="edgeL-5-4 edgeL-4-3"/>
   </vehicle>
   <vehicle id="c00a55ffd526f9bacbb3529888531af5_5" type="type1" depart="149.0" color="1,1,0" departPos="73.2103726828" departSpeed="12.8" 				arrivalPos="828.694626665">
      <route edges="edgeL-7-6"/>
   </vehicle>
   <vehicle id="f9643897f57a000c2facc2fe39de8947_0" type="type1" depart="151.0" color="1,1,0" departPos="7.58046872691" departSpeed="9.7" 				arrivalPos="555.955383092">
      <route edges="edgeL-2-1"/>
   </vehicle>
   <vehicle id="bc65a289109cefd38f0ae418b0dee472_0" type="type1" depart="190.0" color="1,1,0" departPos="9.0209212157" departSpeed="7.8" 				arrivalPos="710.294475287">
      <route edges="edgeL-4-5"/>
   </vehicle>
   <vehicle id="7436e017ad50126b1fe4d813a7997d25_1" type="type1" depart="191.0" color="1,1,0" departPos="9.81960714157" departSpeed="4.2" 				arrivalPos="460.560467369">
      <route edges="edgeL-1-2"/>
   </vehicle>
   <vehicle id="53eb013571ecc9e0fb25358257d0603e_0" type="type1" depart="196.0" color="1,1,0" departPos="288.875849648" departSpeed="18.9" 				arrivalPos="6.64540679178">
      <route edges="edgeL-1_1-1 edgeL-1-2 edgeL-2-3 edgeL-3-3_1"/>
   </vehicle>
   <vehicle id="6d2424625ed54919eaf59567f7bae5ff_0" type="type1" depart="200.0" color="1,1,0" departPos="181.361124123" departSpeed="21.0" 				arrivalPos="320.549414401">
      <route edges="edgeL-1_1-1 edgeL-1-2 edgeL-2-3"/>
   </vehicle>
   <vehicle id="e63dc248f75959e003824cce56e9b138_2" type="type1" depart="206.0" color="1,1,0" departPos="30.6976068211" departSpeed="10.0" 				arrivalPos="4.37954216027">
      <route edges="edgeL-4-3 edgeL-3-2"/>
   </vehicle>
   <vehicle id="2eb9f459764d7dea62a7c28cdc7cc6c0_2" type="type1" depart="216.0" color="1,1,0" departPos="27.1685973469" departSpeed="7.2" 				arrivalPos="7.19447580337">
      <route edges="edgeL-4-3 edgeL-3-2"/>
   </vehicle>
   <vehicle id="e352840c7839670d64cb982922d7ca08_0" type="type1" depart="232.0" color="1,1,0" departPos="62.8955525932" departSpeed="6.1" 				arrivalPos="75.220352663">
      <route edges="edgeL-6_1-6 edgeL-6-7"/>
   </vehicle>
   <vehicle id="e63dc248f75959e003824cce56e9b138_1" type="type1" depart="245.0" color="1,1,0" departPos="35.945142621" departSpeed="10.5" 				arrivalPos="334.660413733">
      <route edges="edgeL-3-2"/>
   </vehicle>
   <vehicle id="dddd65929d991217d922f43fab77feb5_1" type="type1" depart="249.0" color="1,1,0" departPos="135.139115509" departSpeed="12.6" 				arrivalPos="2.09470153196">
      <route edges="edgeL-4_0-4 edgeL-4-4_1"/>
   </vehicle>
   <vehicle id="7e7c25369cbe90a226886a17a2d0cde0_1" type="type1" depart="255.0" color="1,1,0" departPos="201.473497653" departSpeed="5.8" 				arrivalPos="19.76701855">
      <route edges="edgeL-3-4 edgeL-4-5"/>
   </vehicle>
   <vehicle id="2eb9f459764d7dea62a7c28cdc7cc6c0_1" type="type1" depart="255.0" color="1,1,0" departPos="40.5258045064" departSpeed="11.2" 				arrivalPos="7.58046872691">
      <route edges="edgeL-3-2 edgeL-2-1"/>
   </vehicle>
   <vehicle id="0ac5e978a4ea24ca6f59abd965a4b0a7_3" type="type1" depart="278.0" color="1,1,0" departPos="45.156257389" departSpeed="8.4" 				arrivalPos="1.85310728868">
      <route edges="edgeL-4-3 edgeL-3-2"/>
   </vehicle>
   <vehicle id="e567111d6161f8e3712e5b7c53e50809_0" type="type1" depart="279.0" color="1,1,0" departPos="17.1725606692" departSpeed="11.0" 				arrivalPos="39.2767229744">
      <route edges="edgeL-6-7 edgeL-7-7_1"/>
   </vehicle>
   <vehicle id="4d5b41878ac4c91f9b9ffe2cf99ab0c7_4" type="type1" depart="280.0" color="1,1,0" departPos="17.3450156406" departSpeed="8.9" 				arrivalPos="854.925597853">
      <route edges="edgeL-6-5"/>
   </vehicle>
   <vehicle id="b8383b7cca4b0df9b0bdeb98ada1b867_0" type="type1" depart="293.0" color="1,1,0" departPos="39.4928947983" departSpeed="8.1" 				arrivalPos="30.3492154928">
      <route edges="edgeL-6-7 edgeL-7-7_1"/>
   </vehicle>
   <vehicle id="c00a55ffd526f9bacbb3529888531af5_4" type="type1" depart="293.0" color="1,1,0" departPos="7.70217063431" departSpeed="8.9" 				arrivalPos="829.925613117">
      <route edges="edgeL-6-5"/>
   </vehicle>
   <vehicle id="7b571b0cf617ab6c9df21c2525ed28ec_1" type="type1" depart="348.0" color="1,1,0" departPos="609.910585385" departSpeed="15.6" 				arrivalPos="826.016187489">
      <route edges="edgeL-7-6"/>
   </vehicle>
   <vehicle id="e63dc248f75959e003824cce56e9b138_0" type="type1" depart="350.0" color="1,1,0" departPos="13.04416665" departSpeed="9.5" 				arrivalPos="519.809018942">
      <route edges="edgeL-2-1"/>
   </vehicle>
   <vehicle id="f4dc8fe9460f2d60b86fcbff321ad235_0" type="type1" depart="351.0" color="1,1,0" departPos="598.304011958" departSpeed="9.8" 				arrivalPos="826.016187489">
      <route edges="edgeL-7-6"/>
   </vehicle>
   <vehicle id="2eb9f459764d7dea62a7c28cdc7cc6c0_0" type="type1" depart="351.0" color="1,1,0" departPos="7.58046872691" departSpeed="13.0" 				arrivalPos="549.608896861">
      <route edges="edgeL-2-1"/>
   </vehicle>
   <vehicle id="4d5b41878ac4c91f9b9ffe2cf99ab0c7_3" type="type1" depart="352.0" color="1,1,0" departPos="5.983249778" departSpeed="9.0" 				arrivalPos="14.4744515161">
      <route edges="edgeL-5-4 edgeL-4-3"/>
   </vehicle>
   <vehicle id="c00a55ffd526f9bacbb3529888531af5_3" type="type1" depart="371.0" color="1,1,0" departPos="14.723402666" departSpeed="10.7" 				arrivalPos="708.857851803">
      <route edges="edgeL-5-4"/>
   </vehicle>
   <vehicle id="0ac5e978a4ea24ca6f59abd965a4b0a7_2" type="type1" depart="377.0" color="1,1,0" departPos="26.0672989747" departSpeed="11.4" 				arrivalPos="315.621244764">
      <route edges="edgeL-3-2"/>
   </vehicle>
   <vehicle id="0eae62119cd844bf50dbdd4da250ef8a_0" type="type1" depart="381.0" color="1,1,0" departPos="50.4867035857" departSpeed="12.6" 				arrivalPos="2.0533803704">
      <route edges="edgeL-4_0-4 edgeL-4-4_1"/>
   </vehicle>
   <vehicle id="0ac5e978a4ea24ca6f59abd965a4b0a7_1" type="type1" depart="410.0" color="1,1,0" departPos="22.0390112063" departSpeed="12.6" 				arrivalPos="563.184655982">
      <route edges="edgeL-2-1"/>
   </vehicle>
   <vehicle id="2661785e4fbcbf988f28df831de8c419_0" type="type1" depart="413.0" color="1,1,0" departPos="62.8955525932" departSpeed="12.1" 				arrivalPos="11.429183442">
      <route edges="edgeL-6_1-6 edgeL-6-6_0"/>
   </vehicle>
   <vehicle id="6b79cda4b9ab8ae25344b873ae6869b8_0" type="type1" depart="419.0" color="1,1,0" departPos="75.6321195121" departSpeed="10.6" 				arrivalPos="60.7027425299">
      <route edges="edgeL-6_1-6 edgeL-6-7 edgeL-7-7_1"/>
   </vehicle>
   <vehicle id="6d2424625ed54919eaf59567f7bae5ff_1" type="type1" depart="422.0" color="1,1,0" departPos="6.23431039951" departSpeed="3.0" 				arrivalPos="31.4055054636">
      <route edges="edgeL-3-4 edgeL-4-5"/>
   </vehicle>
   <vehicle id="aeca1ce037957ebedcc332160277ceb0_3" type="type1" depart="426.0" color="1,1,0" departPos="268.311421667" departSpeed="15.8" 				arrivalPos="7.24512638605">
      <route edges="edgeL-5-4 edgeL-4-3"/>
   </vehicle>
   <vehicle id="a0ee0b29d9adce47cf68a20a452bd3a2_1" type="type1" depart="431.0" color="1,1,0" departPos="241.139794007" departSpeed="15.8" 				arrivalPos="43.7475317525">
      <route edges="edgeL-7_1-7 edgeL-7-6"/>
   </vehicle>
   <vehicle id="9ecd7ebc515b7cc6c0e244d597f4e39e_5" type="type1" depart="436.0" color="1,1,0" departPos="242.925295303" departSpeed="14.3" 				arrivalPos="41.9619053021">
      <route edges="edgeL-7_1-7 edgeL-7-6"/>
   </vehicle>
   <vehicle id="4d5b41878ac4c91f9b9ffe2cf99ab0c7_2" type="type1" depart="436.0" color="1,1,0" departPos="35.2801745054" departSpeed="6.9" 				arrivalPos="7.15029003824">
      <route edges="edgeL-4-3 edgeL-3-2"/>
   </vehicle>
   <vehicle id="1ee9e8e8983cbbf1d95e8f8dd36bfd6a_0" type="type1" depart="438.0" color="1,1,0" departPos="43.0641486989" departSpeed="10.2" 				arrivalPos="39.2767229744">
      <route edges="edgeL-6-7 edgeL-7-7_1"/>
   </vehicle>
   <vehicle id="6cc8828499db9f4e1b1a824f0020aff7_2" type="type1" depart="468.0" color="1,1,0" departPos="49.7388252272" departSpeed="8.7" 				arrivalPos="20.6037749456">
      <route edges="edgeL-4-3 edgeL-3-2"/>
   </vehicle>
   <vehicle id="280c65bec803c5a4ecbde42b2e558a16_1" type="type1" depart="469.0" color="1,1,0" departPos="360.716627394" departSpeed="8.4" 				arrivalPos="315.968752665">
      <route edges="edgeL-1_1-1 edgeL-1-2 edgeL-2-3"/>
   </vehicle>
   <vehicle id="4d5b41878ac4c91f9b9ffe2cf99ab0c7_1" type="type1" depart="469.0" color="1,1,0" departPos="38.7600762641" departSpeed="13.8" 				arrivalPos="317.386973007">
      <route edges="edgeL-3-2"/>
   </vehicle>
   <vehicle id="a0ee0b29d9adce47cf68a20a452bd3a2_0" type="type1" depart="473.0" color="1,1,0" departPos="9.12178635262" departSpeed="13.7" 				arrivalPos="815.287503915">
      <route edges="edgeL-7-6"/>
   </vehicle>
   <vehicle id="9ecd7ebc515b7cc6c0e244d597f4e39e_4" type="type1" depart="475.0" color="1,1,0" departPos="91.9594529113" departSpeed="16.4" 				arrivalPos="821.552119863">
      <route edges="edgeL-7-6"/>
   </vehicle>
   <vehicle id="9b2fb57d3a8c6b893d3a275693520fb1_1" type="type1" depart="490.0" color="1,1,0" departPos="267.049472927" departSpeed="10.3" 				arrivalPos="46.425971928">
      <route edges="edgeL-7_1-7 edgeL-7-6"/>
   </vehicle>
   <vehicle id="bbd98f39748bec99c0432c0ec742ed1c_0" type="type1" depart="532.0" color="1,1,0" departPos="10.7470068272" departSpeed="9.9" 				arrivalPos="334.841576377">
      <route edges="edgeL-1-2 edgeL-2-3"/>
   </vehicle>
   <vehicle id="fb92473c31e329170f257cbb563317c8_0" type="type1" depart="565.0" color="1,1,0" departPos="307.750073138" departSpeed="0.0" 				arrivalPos="556.306566202">
      <route edges="edgeL-1_1-1 edgeL-1-2"/>
   </vehicle>
   <vehicle id="4d5b41878ac4c91f9b9ffe2cf99ab0c7_0" type="type1" depart="568.0" color="1,1,0" departPos="23.8045835341" departSpeed="12.0" 				arrivalPos="536.0331369">
      <route edges="edgeL-2-1"/>
   </vehicle>
   <vehicle id="c00a55ffd526f9bacbb3529888531af5_2" type="type1" depart="572.0" color="1,1,0" departPos="28.0508492214" departSpeed="13.5" 				arrivalPos="5.38456278465">
      <route edges="edgeL-4-3 edgeL-3-2"/>
   </vehicle>
   <vehicle id="6cc8828499db9f4e1b1a824f0020aff7_1" type="type1" depart="576.0" color="1,1,0" departPos="54.8179667811" departSpeed="11.5" 				arrivalPos="5.93726518453">
      <route edges="edgeL-3-2 edgeL-2-1"/>
   </vehicle>
   <vehicle id="1a457aad55a008c78911afd759c8bf88_0" type="type1" depart="578.0" color="1,1,0" departPos="282.54099224" departSpeed="13.1" 				arrivalPos="715.648803969">
      <route edges="edgeL-4-5"/>
   </vehicle>
   <vehicle id="04469f43c300e655e4349c8870d18db8_0" type="type1" depart="590.0" color="1,1,0" departPos="85.8627924455" departSpeed="2.3" 				arrivalPos="32.1409583253">
      <route edges="edgeL-7_0-7 edgeL-7-6"/>
   </vehicle>
   <vehicle id="242c6a525355b66794a75277369fe975_0" type="type1" depart="595.0" color="1,1,0" departPos="182.218242229" departSpeed="16.4" 				arrivalPos="27.6768906996">
      <route edges="edgeL-7_1-7 edgeL-7-6"/>
   </vehicle>
   <vehicle id="ed539a26b701cb39181be2c093ef417c_0" type="type1" depart="598.0" color="1,1,0" departPos="81.3119019774" departSpeed="7.7" 				arrivalPos="0.965772386166">
      <route edges="edgeL-6_1-6 edgeL-6-6_0"/>
   </vehicle>
   <vehicle id="aeca1ce037957ebedcc332160277ceb0_2" type="type1" depart="600.0" color="1,1,0" departPos="27.1685973469" departSpeed="6.6" 				arrivalPos="3.61883454228">
      <route edges="edgeL-4-3 edgeL-3-2"/>
   </vehicle>
   <vehicle id="6cc8828499db9f4e1b1a824f0020aff7_0" type="type1" depart="603.0" color="1,1,0" departPos="5.93726518453" departSpeed="12.3" 				arrivalPos="559.486528737">
      <route edges="edgeL-2-1"/>
   </vehicle>
   <vehicle id="c00a55ffd526f9bacbb3529888531af5_1" type="type1" depart="608.0" color="1,1,0" departPos="32.4136881138" departSpeed="12.2" 				arrivalPos="6.8200518428">
      <route edges="edgeL-3-2 edgeL-2-1"/>
   </vehicle>
   <vehicle id="510a9be7acfa3d8ec8e19737bef93d91_0" type="type1" depart="619.0" color="1,1,0" departPos="158.113971228" departSpeed="13.4" 				arrivalPos="573.322711616">
      <route edges="edgeL-7_1-7"/>
   </vehicle>
   <vehicle id="9b2fb57d3a8c6b893d3a275693520fb1_0" type="type1" depart="631.0" color="1,1,0" departPos="12.4990643718" departSpeed="9.8" 				arrivalPos="834.051507016">
      <route edges="edgeL-7-6"/>
   </vehicle>
   <vehicle id="aeca1ce037957ebedcc332160277ceb0_1" type="type1" depart="636.0" color="1,1,0" departPos="46.7058503884" departSpeed="17.8" 				arrivalPos="2.40612052877">
      <route edges="edgeL-3-2 edgeL-2-1"/>
   </vehicle>
   <vehicle id="f61da62a424e29965c44750b1db22074_0" type="type1" depart="637.0" color="1,1,0" departPos="264.450694934" departSpeed="3.7" 				arrivalPos="409.532640324">
      <route edges="edgeL-7_2-7"/>
   </vehicle>
   <vehicle id="c00a55ffd526f9bacbb3529888531af5_0" type="type1" depart="641.0" color="1,1,0" departPos="6.8200518428" departSpeed="13.0" 				arrivalPos="565.833014969">
      <route edges="edgeL-2-1"/>
   </vehicle>
   <vehicle id="1ec1462d9c0013ee6f31565214f3947c_0" type="type1" depart="649.0" color="1,1,0" departPos="200.136770219" departSpeed="20.0" 				arrivalPos="330.427257748">
      <route edges="edgeL-1_1-1 edgeL-1-2 edgeL-2-3"/>
   </vehicle>
   <vehicle id="a27693d8d46a4754c879f047651cd8c0_0" type="type1" depart="659.0" color="1,1,0" departPos="12.6279126403" departSpeed="6.9" 				arrivalPos="707.617310446">
      <route edges="edgeL-4-5"/>
   </vehicle>
   <vehicle id="ce984d512179cddec4fbf813c90af4a4_0" type="type1" depart="660.0" color="1,1,0" departPos="27.8863213711" departSpeed="5.4" 				arrivalPos="49.9897327522">
      <route edges="edgeL-6-7 edgeL-7-7_1"/>
   </vehicle>
   <vehicle id="aeca1ce037957ebedcc332160277ceb0_0" type="type1" depart="664.0" color="1,1,0" departPos="2.40612052877" departSpeed="14.6" 				arrivalPos="545.910768626">
      <route edges="edgeL-2-1"/>
   </vehicle>
   <vehicle id="bbb39f530b95cebe61e2a9a1bcc176fe_0" type="type1" depart="672.0" color="1,1,0" departPos="56.0175621261" departSpeed="9.4" 				arrivalPos="398.768418397">
      <route edges="edgeL-6_0-6"/>
   </vehicle>
   <vehicle id="9ecd7ebc515b7cc6c0e244d597f4e39e_3" type="type1" depart="679.0" color="1,1,0" departPos="4.84502327296" departSpeed="9.5" 				arrivalPos="849.568458124">
      <route edges="edgeL-6-5"/>
   </vehicle>
   <vehicle id="ae5a7c006b36b0004ea1f1d39e1fce0b_0" type="type1" depart="686.0" color="1,1,0" departPos="13.8310150519" departSpeed="11.0" 				arrivalPos="20.8215239374">
      <route edges="edgeL-5-4 edgeL-4-3"/>
   </vehicle>
   <vehicle id="aa7e63bdf16501879896047ac16ec9dc_1" type="type1" depart="713.0" color="1,1,0" departPos="76.9210495352" departSpeed="7.9" 				arrivalPos="26.7840779744">
      <route edges="edgeL-7_0-7 edgeL-7-6"/>
   </vehicle>
   <vehicle id="9ecd7ebc515b7cc6c0e244d597f4e39e_2" type="type1" depart="751.0" color="1,1,0" departPos="6.87563839149" departSpeed="8.3" 				arrivalPos="9.89188299764">
      <route edges="edgeL-5-4 edgeL-4-3"/>
   </vehicle>
   <vehicle id="68af7da294597f93712ff5414d376587_0" type="type1" depart="762.0" color="1,1,0" departPos="263.77593668" departSpeed="0.0" 				arrivalPos="321.432277533">
      <route edges="edgeL-1_1-1 edgeL-1-2 edgeL-2-3"/>
   </vehicle>
   <vehicle id="b2e4ff1861b3ebb07dd531ae9e2be5ca_2" type="type1" depart="789.0" color="1,1,0" departPos="140.332997502" departSpeed="12.4" 				arrivalPos="374.9950086">
      <route edges="edgeL-6_1-6"/>
   </vehicle>
   <vehicle id="3520a17f02da037efd17a108b2ea4933_0" type="type1" depart="801.0" color="1,1,0" departPos="126.06626939" departSpeed="4.9" 				arrivalPos="369.790091552">
      <route edges="edgeL-1_0-1"/>
   </vehicle>
   <vehicle id="c3c7ccc233e76a8de37f54148ba21d38_0" type="type1" depart="813.0" color="1,1,0" departPos="51.1143920836" departSpeed="8.3" 				arrivalPos="40.1694741225">
      <route edges="edgeL-6-7 edgeL-7-7_1"/>
   </vehicle>
   <vehicle id="a936cc04d64db72161612688268ba646_1" type="type1" depart="821.0" color="1,1,0" departPos="243.818046451" departSpeed="12.3" 				arrivalPos="35.712211226">
      <route edges="edgeL-7_1-7 edgeL-7-6"/>
   </vehicle>
   <vehicle id="93423d9db26a67b71ffdba2fe8a15a10_0" type="type1" depart="850.0" color="1,1,0" departPos="54.6856449843" departSpeed="9.2" 				arrivalPos="31.2419666409">
      <route edges="edgeL-6-7 edgeL-7-7_1"/>
   </vehicle>
   <vehicle id="a936cc04d64db72161612688268ba646_0" type="type1" depart="863.0" color="1,1,0" departPos="2.69304025323" departSpeed="9.3" 				arrivalPos="820.644384266">
      <route edges="edgeL-7-6"/>
   </vehicle>
   <vehicle id="6161875ab1b319e649a986b1ca5e5b80_0" type="type1" depart="929.0" color="1,1,0" departPos="54.9717111113" departSpeed="10.8" 				arrivalPos="457.153384296">
      <route edges="edgeL-4_0-4"/>
   </vehicle>
   <vehicle id="86448f28da65f04d7f2e43f26e3b0ce2_2" type="type1" depart="929.0" color="1,1,0" departPos="132.961722611" departSpeed="9.3" 				arrivalPos="8.19949627829">
      <route edges="edgeL-4-3 edgeL-3-2"/>
   </vehicle>
   <vehicle id="4bf0c2e6e0230eac523635482dbb68e0_0" type="type1" depart="960.0" color="1,1,0" departPos="97.3713899032" departSpeed="5.6" 				arrivalPos="392.987654873">
      <route edges="edgeL-6_0-6"/>
   </vehicle>
   <vehicle id="197fdf7f63d567249b3d826100264ebf_0" type="type1" depart="971.0" color="1,1,0" departPos="84.0495353735" departSpeed="0.0" 				arrivalPos="389.403091271">
      <route edges="edgeL-6_0-6"/>
   </vehicle>
   <vehicle id="7436e017ad50126b1fe4d813a7997d25_2" type="type1" depart="971.0" color="1,1,0" departPos="32.4621115582" departSpeed="7.5" 				arrivalPos="321.806451149">
      <route edges="edgeL-4-3"/>
   </vehicle>
   <vehicle id="b59054c333b1cf1afce4406ab25f7569_0" type="type1" depart="978.0" color="1,1,0" departPos="4.85931443978" departSpeed="8.4" 				arrivalPos="43.7404767152">
      <route edges="edgeL-5-6 edgeL-6-7 edgeL-7-7_1"/>
   </vehicle>
   <vehicle id="a27693d8d46a4754c879f047651cd8c0_1" type="type1" depart="986.0" color="1,1,0" departPos="678.807737965" departSpeed="2.9" 				arrivalPos="33.9202180855">
      <route edges="edgeL-5-6 edgeL-6-7 edgeL-7-7_1"/>
   </vehicle>
   <vehicle id="f47819a549c67dd9ceacfda9d6725d70_2" type="type1" depart="994.0" color="1,1,0" departPos="217.928273155" departSpeed="14.0" 				arrivalPos="44.6403444777">
      <route edges="edgeL-7_1-7 edgeL-7-6"/>
   </vehicle>
   <vehicle id="9ecd7ebc515b7cc6c0e244d597f4e39e_1" type="type1" depart="998.0" color="1,1,0" departPos="33.5156697683" departSpeed="8.0" 				arrivalPos="2.61381490667">
      <route edges="edgeL-4-3 edgeL-3-2"/>
   </vehicle>
   <vehicle id="c5725096d2340b7ebebcf5fb889b9a89_0" type="type1" depart="1002.0" color="1,1,0" departPos="392.074395917" departSpeed="9.2" 				arrivalPos="4.01330921726">
      <route edges="edgeL-7_1-7 edgeL-7-7_0"/>
   </vehicle>
   <vehicle id="fb92473c31e329170f257cbb563317c8_1" type="type1" depart="1005.0" color="1,1,0" departPos="171.673942885" departSpeed="2.7" 				arrivalPos="691.554321399">
      <route edges="edgeL-3-4 edgeL-4-5"/>
   </vehicle>
   <vehicle id="4a5770aad6b2170975323aea0b50a3e0_0" type="type1" depart="1006.0" color="1,1,0" departPos="81.8534175115" departSpeed="3.8" 				arrivalPos="383.622334816">
      <route edges="edgeL-6_0-6"/>
   </vehicle>
   <vehicle id="86448f28da65f04d7f2e43f26e3b0ce2_1" type="type1" depart="1010.0" color="1,1,0" departPos="31.5308239926" departSpeed="11.1" 				arrivalPos="334.660413733">
      <route edges="edgeL-3-2"/>
   </vehicle>
   <vehicle id="9ecd7ebc515b7cc6c0e244d597f4e39e_0" type="type1" depart="1028.0" color="1,1,0" departPos="2.61381490667" departSpeed="10.2" 				arrivalPos="16.742293234">
      <route edges="edgeL-3-2 edgeL-2-1"/>
   </vehicle>
   <vehicle id="2661785e4fbcbf988f28df831de8c419_1" type="type1" depart="1041.0" color="1,1,0" departPos="106.446150971" departSpeed="5.2" 				arrivalPos="390.646324694">
      <route edges="edgeL-6_0-6"/>
   </vehicle>
   <vehicle id="86448f28da65f04d7f2e43f26e3b0ce2_0" type="type1" depart="1049.0" color="1,1,0" departPos="17.6250798922" departSpeed="11.8" 				arrivalPos="560.369315395">
      <route edges="edgeL-2-1"/>
   </vehicle>
   <vehicle id="aa7e63bdf16501879896047ac16ec9dc_0" type="type1" depart="1063.0" color="1,1,0" departPos="101.111939693" departSpeed="3.7" 				arrivalPos="54.453486493">
      <route edges="edgeL-6-7 edgeL-7-7_1"/>
   </vehicle>
   <vehicle id="ae5a7c006b36b0004ea1f1d39e1fce0b_1" type="type1" depart="1064.0" color="1,1,0" departPos="24.0751285605" departSpeed="5.7" 				arrivalPos="91.6935625809">
      <route edges="edgeL-3_0-3"/>
   </vehicle>
   <vehicle id="c72d51c6a3c55b666274b2329cdc5aa4_1" type="type1" depart="1065.0" color="1,1,0" departPos="78.414106681" departSpeed="14.6" 				arrivalPos="389.403091271">
      <route edges="edgeL-6_0-6"/>
   </vehicle>
   <vehicle id="87ccb5c75eca52179fe921f816b78bde_1" type="type1" depart="1070.0" color="1,1,0" departPos="320.818699019" departSpeed="3.7" 				arrivalPos="429.282848802">
      <route edges="edgeL-4_1-4"/>
   </vehicle>
   <vehicle id="ccb96aad4d317f06f0635034c5fd7a24_3" type="type1" depart="1083.0" color="1,1,0" departPos="32.4621115582" departSpeed="5.7" 				arrivalPos="14.4237280749">
      <route edges="edgeL-4-3 edgeL-3-2"/>
   </vehicle>
   <vehicle id="52375bb5b35d4311eb099483f5b6737e_0" type="type1" depart="1120.0" color="1,1,0" departPos="239.565408173" departSpeed="11.2" 				arrivalPos="548.194508454">
      <route edges="edgeL-1_1-1 edgeL-1-2"/>
   </vehicle>
   <vehicle id="f3bc6bd1462edd25f7ae844143e8f65d_0" type="type1" depart="1120.0" color="1,1,0" departPos="54.8635002664" departSpeed="12.8" 				arrivalPos="0.820637855301">
      <route edges="edgeL-6_1-6 edgeL-6-6_0"/>
   </vehicle>
   <vehicle id="496cdcfaca59e961e251d568f5316165_2" type="type1" depart="1124.0" color="1,1,0" departPos="222.799620369" departSpeed="6.5" 				arrivalPos="0.898052976589">
      <route edges="edgeL-5-4 edgeL-4-3"/>
   </vehicle>
   <vehicle id="0adfc0613122c69a44c238c1b496b156_0" type="type1" depart="1161.0" color="1,1,0" departPos="303.303150943" departSpeed="0.0" 				arrivalPos="323.198005776">
      <route edges="edgeL-1_1-1 edgeL-1-2 edgeL-2-3"/>
   </vehicle>
   <vehicle id="7436e017ad50126b1fe4d813a7997d25_0" type="type1" depart="1166.0" color="1,1,0" departPos="6.49278433955" departSpeed="7.8" 				arrivalPos="41.2592151839">
      <route edges="edgeL-2-3 edgeL-3-4 edgeL-4-5"/>
   </vehicle>
   <vehicle id="68af7da294597f93712ff5414d376587_1" type="type1" depart="1167.0" color="1,1,0" departPos="3.46363645309" departSpeed="10.5" 				arrivalPos="41.2592151839">
      <route edges="edgeL-3-4 edgeL-4-5"/>
   </vehicle>
   <vehicle id="ccb96aad4d317f06f0635034c5fd7a24_2" type="type1" depart="1188.0" color="1,1,0" departPos="54.8179667811" departSpeed="13.7" 				arrivalPos="312.972653389">
      <route edges="edgeL-3-2"/>
   </vehicle>
   <vehicle id="ccb96aad4d317f06f0635034c5fd7a24_1" type="type1" depart="1217.0" color="1,1,0" departPos="13.9269533083" departSpeed="11.3" 				arrivalPos="4.50670708348">
      <route edges="edgeL-2-1 edgeL-1-1_0"/>
   </vehicle>
   <vehicle id="e1b518d5a198d9ff01eb7b36b3c724ac_0" type="type1" depart="1226.0" color="1,1,0" departPos="276.325893209" departSpeed="18.3" 				arrivalPos="464.258593115">
      <route edges="edgeL-1_1-1 edgeL-1-2"/>
   </vehicle>
   <vehicle id="a439f43b2eff2cda428f0dcedf50fc4b_0" type="type1" depart="1230.0" color="1,1,0" departPos="33.2432017221" departSpeed="8.4" 				arrivalPos="39.2767229744">
      <route edges="edgeL-6-7 edgeL-7-7_1"/>
   </vehicle>
   <vehicle id="977133799d4c7f49b1806386915adb60_0" type="type1" depart="1235.0" color="1,1,0" departPos="300.634998025" departSpeed="16.1" 				arrivalPos="60.4641182353">
      <route edges="edgeL-1_1-1 edgeL-1-1_2"/>
   </vehicle>
   <vehicle id="6e46d480ea5245d85b6bc87cca6c7292_0" type="type1" depart="1236.0" color="1,1,0" departPos="86.5201757791" departSpeed="6.6" 				arrivalPos="185.438479035">
      <route edges="edgeL-3_1-3"/>
   </vehicle>
   <vehicle id="2be7c2e73198667e568222b84fd591b9_0" type="type1" depart="1255.0" color="1,1,0" departPos="339.728319691" departSpeed="5.6" 				arrivalPos="1.79206241771">
      <route edges="edgeL-7_2-7 edgeL-7-7_0"/>
   </vehicle>
   <vehicle id="f606314721f3484a563c6537859525db_0" type="type1" depart="1259.0" color="1,1,0" departPos="335.291634364" departSpeed="3.7" 				arrivalPos="2.90268581749">
      <route edges="edgeL-7_2-7 edgeL-7-7_0"/>
   </vehicle>
   <vehicle id="66e055033a638d395de45cc7e4b17615_0" type="type1" depart="1281.0" color="1,1,0" departPos="33.3801140839" departSpeed="5.6" 				arrivalPos="5.07671240357">
      <route edges="edgeL-7_0-7 edgeL-7-7_2"/>
   </vehicle>
   <vehicle id="ed39ca3d53a06df4d213a79d049d45ba_3" type="type1" depart="1307.0" color="1,1,0" departPos="4.90713191523" departSpeed="10.1" 				arrivalPos="10.7741358602">
      <route edges="edgeL-5-4 edgeL-4-3"/>
   </vehicle>
   <vehicle id="eb03b38db809195a446295b9bce18c1f_2" type="type1" depart="1310.0" color="1,1,0" departPos="255.423806377" departSpeed="14.0" 				arrivalPos="38.3906514015">
      <route edges="edgeL-7_1-7 edgeL-7-6"/>
   </vehicle>
   <vehicle id="4df1f537a04f809ad402d613c4f60ac7_0" type="type1" depart="1313.0" color="1,1,0" departPos="295.200116698" departSpeed="10.1" 				arrivalPos="310.505228935">
      <route edges="edgeL-1_1-1 edgeL-1-2 edgeL-2-3"/>
   </vehicle>
   <vehicle id="ed90d426fe7570650d97d135b35b8c93_1" type="type1" depart="1315.0" color="1,1,0" departPos="95.1752690811" departSpeed="7.5" 				arrivalPos="396.427085095">
      <route edges="edgeL-6_0-6"/>
   </vehicle>