<routes>
   <vType id="type1" accel="0.8" decel="4.5" sigma="0.5" length="5" maxSpeed="70"/>
   <vehicle id="c243b97c579b441827b59ade5f9c5c3b_0" type="type1" depart="0.0" color="1,1,0" departPos="572.050906519" 			departSpeed="9.2"  arrivalPos="360.615918468" arrivalSpeed="8.2">
      <route edges="edgeL-1-2 edgeL-2-3"/>
   </vehicle>
   <vehicle id="b30d752005d4392f8b4bfbdee2d54710_0" type="type1" depart="10.0" color="1,1,0" departPos="70.0693831445" 			departSpeed="16.5"  arrivalPos="25.4378218867" arrivalSpeed="9.0">
      <route edges="edgeL-6_1-6 edgeL-6-5"/>
   </vehicle>
   <vehicle id="03105e580fe53482e2a4b85def9d7a0a_0" type="type1" depart="29.0" color="1,1,0" departPos="183.305125607" 			departSpeed="15.8"  arrivalPos="43.4864199362" arrivalSpeed="10.1">
      <route edges="edgeL-7_1-7 edgeL-7-6"/>
   </vehicle>
   <vehicle id="ccb96aad4d317f06f0635034c5fd7a24_0" type="type1" depart="46.0" color="1,1,0" departPos="13.033998391" 			departSpeed="11.9"  arrivalPos="123.399143544" arrivalSpeed="17.8">
      <route edges="edgeL-7-6 edgeL-6-5"/>
   </vehicle>
   <vehicle id="7e7c25369cbe90a226886a17a2d0cde0_0" type="type1" depart="63.0" color="1,1,0" departPos="434.894777206" 			departSpeed="8.2"  arrivalPos="577.51856157" arrivalSpeed="8.8">
      <route edges="edgeL-1-2"/>
   </vehicle>
   <vehicle id="44059ba1faca1e97e9c6483a53c949ea_0" type="type1" depart="89.0" color="1,1,0" departPos="78.6870533652" 			departSpeed="10.8"  arrivalPos="5.78093436755" arrivalSpeed="8.9">
      <route edges="edgeL-6_0-6 edgeL-6-5"/>
   </vehicle>
   <vehicle id="e8fd86a18047027718c43ee21f41f813_0" type="type1" depart="104.0" color="1,1,0" departPos="15.7848945788" 			departSpeed="9.8"  arrivalPos="33.5887636368" arrivalSpeed="4.3">
      <route edges="edgeL-6-7 edgeL-7-7_2"/>
   </vehicle>
   <vehicle id="e526ed375bc779c447fb1b4d77c5dcc6_0" type="type1" depart="112.0" color="1,1,0" departPos="47.1774352307" 			departSpeed="10.4"  arrivalPos="468.279973021" arrivalSpeed="4.8">
      <route edges="edgeL-4_0-4"/>
   </vehicle>
   <vehicle id="e99fc29d026d5d48bc71d9ebed62d4c9_0" type="type1" depart="123.0" color="1,1,0" departPos="5.07423924602" 			departSpeed="9.9"  arrivalPos="76.1011868012" arrivalSpeed="9.8">
      <route edges="edgeL-6-7 edgeL-7-7_1"/>
   </vehicle>
   <vehicle id="91e1720e5be7f8de0f348ccd0e507abb_0" type="type1" depart="125.0" color="1,1,0" departPos="1.71059040077" 			departSpeed="14.0"  arrivalPos="34.2316397172" arrivalSpeed="8.1">
      <route edges="edgeL-5-4 edgeL-4-3"/>
   </vehicle>
   <vehicle id="176f2f10ad096856d983fdc915fde457_0" type="type1" depart="129.0" color="1,1,0" departPos="39.2239742872" 			departSpeed="13.7"  arrivalPos="76.1011868012" arrivalSpeed="4.8">
      <route edges="edgeL-5-6 edgeL-6-7 edgeL-7-7_1"/>
   </vehicle>
   <vehicle id="7f8aebf3c57b10678dfc08f7312345a9_0" type="type1" depart="133.0" color="1,1,0" departPos="15.1093720781" 			departSpeed="15.8"  arrivalPos="77.8868448361" arrivalSpeed="6.3">
      <route edges="edgeL-5-6 edgeL-6-7 edgeL-7-7_1"/>
   </vehicle>
   <vehicle id="f9643897f57a000c2facc2fe39de8947_0" type="type1" depart="148.0" color="1,1,0" departPos="574.896879383" 			departSpeed="7.0"  arrivalPos="368.015390338" arrivalSpeed="12.0">
      <route edges="edgeL-1-2 edgeL-2-3"/>
   </vehicle>
   <vehicle id="bc65a289109cefd38f0ae418b0dee472_0" type="type1" depart="190.0" color="1,1,0" departPos="16.5320126798" 			departSpeed="7.8"  arrivalPos="735.852978993" arrivalSpeed="4.9">
      <route edges="edgeL-4-5"/>
   </vehicle>
   <vehicle id="53eb013571ecc9e0fb25358257d0603e_0" type="type1" depart="196.0" color="1,1,0" departPos="298.880936216" 			departSpeed="18.9"  arrivalPos="14.1802820547" arrivalSpeed="4.5">
      <route edges="edgeL-1_1-1 edgeL-1-2 edgeL-2-3 edgeL-3-3_1"/>
   </vehicle>
   <vehicle id="6d2424625ed54919eaf59567f7bae5ff_0" type="type1" depart="200.0" color="1,1,0" departPos="191.364412647" 			departSpeed="21.0"  arrivalPos="38.2863398521" arrivalSpeed="6.0">
      <route edges="edgeL-1_1-1 edgeL-1-2 edgeL-2-3 edgeL-3-4 edgeL-4-5"/>
   </vehicle>
   <vehicle id="e352840c7839670d64cb982922d7ca08_0" type="type1" depart="232.0" color="1,1,0" departPos="72.9146143562" 			departSpeed="6.1"  arrivalPos="29.1774156874" arrivalSpeed="6.8">
      <route edges="edgeL-6_1-6 edgeL-6-7"/>
   </vehicle>
   <vehicle id="7e7c25369cbe90a226886a17a2d0cde0_1" type="type1" depart="249.0" color="1,1,0" departPos="160.11267025" 			departSpeed="9.3"  arrivalPos="26.849387112" arrivalSpeed="9.6">
      <route edges="edgeL-3-4 edgeL-4-5"/>
   </vehicle>
   <vehicle id="e567111d6161f8e3712e5b7c53e50809_0" type="type1" depart="282.0" color="1,1,0" departPos="8.64333708944" 			departSpeed="12.5"  arrivalPos="60.9233962484" arrivalSpeed="16.1">
      <route edges="edgeL-6-7 edgeL-7-7_1"/>
   </vehicle>
   <vehicle id="b8383b7cca4b0df9b0bdeb98ada1b867_0" type="type1" depart="296.0" color="1,1,0" departPos="27.3916965998" 			departSpeed="11.4"  arrivalPos="51.9956668422" arrivalSpeed="9.1">
      <route edges="edgeL-6-7 edgeL-7-7_1"/>
   </vehicle>
   <vehicle id="e63dc248f75959e003824cce56e9b138_0" type="type1" depart="347.0" color="1,1,0" departPos="568.715269654" 			departSpeed="9.0"  arrivalPos="339.21265308" arrivalSpeed="11.1">
      <route edges="edgeL-1-2 edgeL-2-3 edgeL-3-4"/>
   </vehicle>
   <vehicle id="f4dc8fe9460f2d60b86fcbff321ad235_0" type="type1" depart="351.0" color="1,1,0" departPos="597.077684922" 			departSpeed="9.8"  arrivalPos="768.473864095" arrivalSpeed="4.2">
      <route edges="edgeL-7-6"/>
   </vehicle>
   <vehicle id="2eb9f459764d7dea62a7c28cdc7cc6c0_0" type="type1" depart="351.0" color="1,1,0" departPos="546.311146459" 			departSpeed="13.0"  arrivalPos="334.802874811" arrivalSpeed="7.8">
      <route edges="edgeL-1-2 edgeL-2-3 edgeL-3-4"/>
   </vehicle>
   <vehicle id="0eae62119cd844bf50dbdd4da250ef8a_0" type="type1" depart="381.0" color="1,1,0" departPos="60.4987220955" 			departSpeed="12.6"  arrivalPos="4.32820980301" arrivalSpeed="9.3">
      <route edges="edgeL-4_0-4 edgeL-4-4_1"/>
   </vehicle>
   <vehicle id="2661785e4fbcbf988f28df831de8c419_0" type="type1" depart="413.0" color="1,1,0" departPos="72.9146143562" 			departSpeed="12.1"  arrivalPos="23.1242283713" arrivalSpeed="6.2">
      <route edges="edgeL-6_1-6 edgeL-6-5"/>
   </vehicle>
   <vehicle id="6b79cda4b9ab8ae25344b873ae6869b8_0" type="type1" depart="419.0" color="1,1,0" departPos="85.6360930481" 			departSpeed="10.6"  arrivalPos="82.3510158926" arrivalSpeed="19.6">
      <route edges="edgeL-6_1-6 edgeL-6-7 edgeL-7-7_1"/>
   </vehicle>
   <vehicle id="1ee9e8e8983cbbf1d95e8f8dd36bfd6a_0" type="type1" depart="441.0" color="1,1,0" departPos="28.2845545717" 			departSpeed="10.4"  arrivalPos="60.9233962484" arrivalSpeed="8.6">
      <route edges="edgeL-6-7 edgeL-7-7_1"/>
   </vehicle>
   <vehicle id="a0ee0b29d9adce47cf68a20a452bd3a2_0" type="type1" depart="476.0" color="1,1,0" departPos="43.4864199362" 			departSpeed="14.6"  arrivalPos="43.4864199362" arrivalSpeed="14.6">
      <route edges="edgeL-7-6"/>
   </vehicle>
   <vehicle id="bbd98f39748bec99c0432c0ec742ed1c_0" type="type1" depart="532.0" color="1,1,0" departPos="11.6825211817" 			departSpeed="9.9"  arrivalPos="368.723469503" arrivalSpeed="8.1">
      <route edges="edgeL-1-2 edgeL-2-3"/>
   </vehicle>
   <vehicle id="fb92473c31e329170f257cbb563317c8_0" type="type1" depart="565.0" color="1,1,0" departPos="317.752291709" 			departSpeed="0.0"  arrivalPos="573.116217465" arrivalSpeed="6.6">
      <route edges="edgeL-1_1-1 edgeL-1-2"/>
   </vehicle>
   <vehicle id="4d5b41878ac4c91f9b9ffe2cf99ab0c7_0" type="type1" depart="565.0" color="1,1,0" departPos="565.018254681" 			departSpeed="13.4"  arrivalPos="866.507500938" arrivalSpeed="19.6">
      <route edges="edgeL-1-2 edgeL-2-3 edgeL-3-4 edgeL-4-5 edgeL-5-6"/>
   </vehicle>
   <vehicle id="1a457aad55a008c78911afd759c8bf88_0" type="type1" depart="578.0" color="1,1,0" departPos="288.668811537" 			departSpeed="13.1"  arrivalPos="732.284359597" arrivalSpeed="0.0">
      <route edges="edgeL-4-5"/>
   </vehicle>
   <vehicle id="04469f43c300e655e4349c8870d18db8_0" type="type1" depart="590.0" color="1,1,0" departPos="95.8949787755" 			departSpeed="2.3"  arrivalPos="32.3126287812" arrivalSpeed="8.3">
      <route edges="edgeL-7_0-7 edgeL-7-6"/>
   </vehicle>
   <vehicle id="242c6a525355b66794a75277369fe975_0" type="type1" depart="595.0" color="1,1,0" departPos="192.23393942" 			departSpeed="16.4"  arrivalPos="28.1087947281" arrivalSpeed="13.1">
      <route edges="edgeL-7_1-7 edgeL-7-6"/>
   </vehicle>
   <vehicle id="ed539a26b701cb39181be2c093ef417c_0" type="type1" depart="598.0" color="1,1,0" departPos="91.3224148377" 			departSpeed="7.7"  arrivalPos="22.1894655803" arrivalSpeed="7.1">
      <route edges="edgeL-6_1-6 edgeL-6-5"/>
   </vehicle>
   <vehicle id="6cc8828499db9f4e1b1a824f0020aff7_0" type="type1" depart="603.0" color="1,1,0" departPos="557.954345319" 			departSpeed="12.3"  arrivalPos="338.378831169" arrivalSpeed="9.3">
      <route edges="edgeL-1-2 edgeL-2-3"/>
   </vehicle>
   <vehicle id="510a9be7acfa3d8ec8e19737bef93d91_0" type="type1" depart="619.0" color="1,1,0" departPos="168.12617111" 			departSpeed="13.4"  arrivalPos="597.629842854" arrivalSpeed="5.3">
      <route edges="edgeL-7_1-7"/>
   </vehicle>
   <vehicle id="9b2fb57d3a8c6b893d3a275693520fb1_0" type="type1" depart="631.0" color="1,1,0" departPos="14.9891242185" 			departSpeed="9.8"  arrivalPos="46.0954456007" arrivalSpeed="11.3">
      <route edges="edgeL-7-6"/>
   </vehicle>
   <vehicle id="c00a55ffd526f9bacbb3529888531af5_0" type="type1" depart="641.0" color="1,1,0" departPos="557.07149837" 			departSpeed="13.0"  arrivalPos="745.277109781" arrivalSpeed="11.0">
      <route edges="edgeL-1-2 edgeL-2-3 edgeL-3-4 edgeL-4-5 edgeL-5-6 edgeL-6-7"/>
   </vehicle>
   <vehicle id="1ec1462d9c0013ee6f31565214f3947c_0" type="type1" depart="649.0" color="1,1,0" departPos="210.143438824" 			departSpeed="20.0"  arrivalPos="364.326447096" arrivalSpeed="3.6">
      <route edges="edgeL-1_1-1 edgeL-1-2 edgeL-2-3"/>
   </vehicle>
   <vehicle id="f61da62a424e29965c44750b1db22074_0" type="type1" depart="652.0" color="1,1,0" departPos="366.408964716" 			departSpeed="5.2"  arrivalPos="432.858885787" arrivalSpeed="4.5">
      <route edges="edgeL-7_2-7"/>
   </vehicle>
   <vehicle id="a27693d8d46a4754c879f047651cd8c0_0" type="type1" depart="659.0" color="1,1,0" departPos="20.2260108036" 			departSpeed="6.9"  arrivalPos="732.284359597" arrivalSpeed="6.3">
      <route edges="edgeL-4-5"/>
   </vehicle>
   <vehicle id="ce984d512179cddec4fbf813c90af4a4_0" type="type1" depart="663.0" color="1,1,0" departPos="22.9274436639" 			departSpeed="13.7"  arrivalPos="71.6370693433" arrivalSpeed="11.9">
      <route edges="edgeL-6-7 edgeL-7-7_1"/>
   </vehicle>
   <vehicle id="aeca1ce037957ebedcc332160277ceb0_0" type="type1" depart="664.0" color="1,1,0" departPos="561.486048885" 			departSpeed="14.6"  arrivalPos="332.865455856" arrivalSpeed="3.9">
      <route edges="edgeL-1-2 edgeL-2-3 edgeL-3-4"/>
   </vehicle>
   <vehicle id="bbb39f530b95cebe61e2a9a1bcc176fe_0" type="type1" depart="672.0" color="1,1,0" departPos="66.3510149839" 			departSpeed="9.4"  arrivalPos="16.0408116925" arrivalSpeed="4.1">
      <route edges="edgeL-6_0-6 edgeL-6-5"/>
   </vehicle>
   <vehicle id="ae5a7c006b36b0004ea1f1d39e1fce0b_0" type="type1" depart="683.0" color="1,1,0" departPos="1.71059040077" 			departSpeed="8.6"  arrivalPos="35.0749910764" arrivalSpeed="4.8">
      <route edges="edgeL-5-4 edgeL-4-3"/>
   </vehicle>
   <vehicle id="68af7da294597f93712ff5414d376587_0" type="type1" depart="762.0" color="1,1,0" departPos="273.781506863" 			departSpeed="0.0"  arrivalPos="48.0865587893" arrivalSpeed="8.5">
      <route edges="edgeL-1_1-1 edgeL-1-2 edgeL-2-3 edgeL-3-4 edgeL-4-5"/>
   </vehicle>
   <vehicle id="3520a17f02da037efd17a108b2ea4933_0" type="type1" depart="801.0" color="1,1,0" departPos="136.087151936" 			departSpeed="4.9"  arrivalPos="6.3730697183" arrivalSpeed="3.0">
      <route edges="edgeL-1_0-1 edgeL-1-1_1"/>
   </vehicle>
   <vehicle id="c3c7ccc233e76a8de37f54148ba21d38_0" type="type1" depart="813.0" color="1,1,0" departPos="5.07423924602" 			departSpeed="8.3"  arrivalPos="61.8161887589" arrivalSpeed="10.4">
      <route edges="edgeL-6-7 edgeL-7-7_1"/>
   </vehicle>
   <vehicle id="93423d9db26a67b71ffdba2fe8a15a10_0" type="type1" depart="850.0" color="1,1,0" departPos="8.64333708944" 			departSpeed="9.2"  arrivalPos="52.8884218506" arrivalSpeed="11.0">
      <route edges="edgeL-6-7 edgeL-7-7_1"/>
   </vehicle>
   <vehicle id="a936cc04d64db72161612688268ba646_0" type="type1" depart="863.0" color="1,1,0" departPos="11.3216030755" 			departSpeed="9.3"  arrivalPos="35.721261776" arrivalSpeed="11.0">
      <route edges="edgeL-7-6"/>
   </vehicle>
   <vehicle id="69b2fc5ef29c9e6ee2f359dc046a6c2c_0" type="type1" depart="881.0" color="1,1,0" departPos="17.5678379666" 			departSpeed="25.8"  arrivalPos="78.0340522748" arrivalSpeed="21.2">
      <route edges="edgeL-6-5"/>
   </vehicle>
   <vehicle id="6161875ab1b319e649a986b1ca5e5b80_0" type="type1" depart="929.0" color="1,1,0" departPos="64.9998028116" 			departSpeed="10.8"  arrivalPos="2.62466305117" arrivalSpeed="9.7">
      <route edges="edgeL-4_0-4 edgeL-4-4_1"/>
   </vehicle>
   <vehicle id="4bf0c2e6e0230eac523635482dbb68e0_0" type="type1" depart="960.0" color="1,1,0" departPos="107.742222186" 			departSpeed="5.6"  arrivalPos="11.4500414742" arrivalSpeed="7.2">
      <route edges="edgeL-6_0-6 edgeL-6-5"/>
   </vehicle>
   <vehicle id="7436e017ad50126b1fe4d813a7997d25_1" type="type1" depart="965.0" color="1,1,0" departPos="10.0532628266" 			departSpeed="2.8"  arrivalPos="335.582536232" arrivalSpeed="6.4">
      <route edges="edgeL-4-3"/>
   </vehicle>
   <vehicle id="197fdf7f63d567249b3d826100264ebf_0" type="type1" depart="971.0" color="1,1,0" departPos="94.3594857018" 			departSpeed="0.0"  arrivalPos="16.5814659854" arrivalSpeed="5.7">
      <route edges="edgeL-6_0-6 edgeL-6-5"/>
   </vehicle>
   <vehicle id="a27693d8d46a4754c879f047651cd8c0_1" type="type1" depart="980.0" color="1,1,0" departPos="659.466383091" 			departSpeed="3.9"  arrivalPos="55.5667116753" arrivalSpeed="13.1">
      <route edges="edgeL-5-6 edgeL-6-7 edgeL-7-7_1"/>
   </vehicle>
   <vehicle id="b59054c333b1cf1afce4406ab25f7569_0" type="type1" depart="981.0" color="1,1,0" departPos="35.048318885" 			departSpeed="13.4"  arrivalPos="65.3873845175" arrivalSpeed="9.5">
      <route edges="edgeL-5-6 edgeL-6-7 edgeL-7-7_1"/>
   </vehicle>
   <vehicle id="fb92473c31e329170f257cbb563317c8_1" type="type1" depart="1002.0" color="1,1,0" departPos="165.584275687" 			departSpeed="1.7"  arrivalPos="727.823626877" arrivalSpeed="10.1">
      <route edges="edgeL-3-4 edgeL-4-5"/>
   </vehicle>
   <vehicle id="c5725096d2340b7ebebcf5fb889b9a89_0" type="type1" depart="1002.0" color="1,1,0" departPos="402.084650729" 			departSpeed="9.2"  arrivalPos="599.415557262" arrivalSpeed="2.9">
      <route edges="edgeL-7_1-7"/>
   </vehicle>
   <vehicle id="4a5770aad6b2170975323aea0b50a3e0_0" type="type1" depart="1006.0" color="1,1,0" departPos="92.1414638501" 			departSpeed="3.8"  arrivalPos="20.3174244947" arrivalSpeed="5.5">
      <route edges="edgeL-6_0-6 edgeL-6-5"/>
   </vehicle>
   <vehicle id="9ecd7ebc515b7cc6c0e244d597f4e39e_0" type="type1" depart="1028.0" color="1,1,0" departPos="356.369697381" 			departSpeed="10.2"  arrivalPos="738.133961176" arrivalSpeed="19.6">
      <route edges="edgeL-2-3 edgeL-3-4 edgeL-4-5 edgeL-5-6 edgeL-6-7"/>
   </vehicle>
   <vehicle id="2661785e4fbcbf988f28df831de8c419_1" type="type1" depart="1035.0" color="1,1,0" departPos="86.5228313026" 			departSpeed="5.2"  arrivalPos="20.3174244947" arrivalSpeed="4.0">
      <route edges="edgeL-6_0-6 edgeL-6-5"/>
   </vehicle>
   <vehicle id="86448f28da65f04d7f2e43f26e3b0ce2_0" type="type1" depart="1046.0" color="1,1,0" departPos="571.364347933" 			departSpeed="10.3"  arrivalPos="360.786349499" arrivalSpeed="9.6">
      <route edges="edgeL-1-2 edgeL-2-3"/>
   </vehicle>
   <vehicle id="ae5a7c006b36b0004ea1f1d39e1fce0b_1" type="type1" depart="1058.0" color="1,1,0" departPos="1.05615211965" 			departSpeed="4.1"  arrivalPos="4.12575967858" arrivalSpeed="6.4">
      <route edges="edgeL-3_0-3 edgeL-3-2"/>
   </vehicle>
   <vehicle id="aa7e63bdf16501879896047ac16ec9dc_0" type="type1" depart="1063.0" color="1,1,0" departPos="55.0708408956" 			departSpeed="3.7"  arrivalPos="753.313152346" arrivalSpeed="9.9">
      <route edges="edgeL-6-7"/>
   </vehicle>
   <vehicle id="52375bb5b35d4311eb099483f5b6737e_0" type="type1" depart="1120.0" color="1,1,0" departPos="249.572104529" 			departSpeed="11.2"  arrivalPos="570.289745055" arrivalSpeed="8.5">
      <route edges="edgeL-1_1-1 edgeL-1-2"/>
   </vehicle>
   <vehicle id="f3bc6bd1462edd25f7ae844143e8f65d_0" type="type1" depart="1120.0" color="1,1,0" departPos="64.882597405" 			departSpeed="12.8"  arrivalPos="23.0198676173" arrivalSpeed="7.1">
      <route edges="edgeL-6_1-6 edgeL-6-5"/>
   </vehicle>
   <vehicle id="0adfc0613122c69a44c238c1b496b156_0" type="type1" depart="1161.0" color="1,1,0" departPos="313.304151898" 			departSpeed="0.0"  arrivalPos="357.098676868" arrivalSpeed="7.8">
      <route edges="edgeL-1_1-1 edgeL-1-2 edgeL-2-3"/>
   </vehicle>
   <vehicle id="7436e017ad50126b1fe4d813a7997d25_0" type="type1" depart="1163.0" color="1,1,0" departPos="360.988134812" 			departSpeed="7.5"  arrivalPos="125.850673301" arrivalSpeed="9.7">
      <route edges="edgeL-3-2 edgeL-2-1"/>
   </vehicle>
   <vehicle id="ccb96aad4d317f06f0635034c5fd7a24_1" type="type1" depart="1214.0" color="1,1,0" departPos="573.130552669" 			departSpeed="22.4"  arrivalPos="344.561407169" arrivalSpeed="10.5">
      <route edges="edgeL-1-2 edgeL-2-3"/>
   </vehicle>
   <vehicle id="e1b518d5a198d9ff01eb7b36b3c724ac_0" type="type1" depart="1226.0" color="1,1,0" departPos="286.331210979" 			departSpeed="18.3"  arrivalPos="461.168531756" arrivalSpeed="3.9">
      <route edges="edgeL-1_1-1 edgeL-1-2"/>
   </vehicle>
   <vehicle id="a439f43b2eff2cda428f0dcedf50fc4b_0" type="type1" depart="1233.0" color="1,1,0" departPos="16.677685487" 			departSpeed="9.8"  arrivalPos="60.9233962484" arrivalSpeed="11.6">
      <route edges="edgeL-6-7 edgeL-7-7_1"/>
   </vehicle>
   <vehicle id="977133799d4c7f49b1806386915adb60_0" type="type1" depart="1235.0" color="1,1,0" departPos="310.635493295" 			departSpeed="16.1"  arrivalPos="66.8600914015" arrivalSpeed="0.0">
      <route edges="edgeL-1_1-1 edgeL-1-1_2"/>
   </vehicle>
   <vehicle id="6e46d480ea5245d85b6bc87cca6c7292_0" type="type1" depart="1236.0" color="1,1,0" departPos="96.5751293221" 			departSpeed="6.6"  arrivalPos="189.649584128" arrivalSpeed="2.8">
      <route edges="edgeL-3_1-3"/>
   </vehicle>
   <vehicle id="2be7c2e73198667e568222b84fd591b9_0" type="type1" depart="1258.0" color="1,1,0" departPos="365.302464579" 			departSpeed="5.3"  arrivalPos="425.10118026" arrivalSpeed="0.0">
      <route edges="edgeL-7_2-7"/>
   </vehicle>
   <vehicle id="f606314721f3484a563c6537859525db_0" type="type1" depart="1262.0" color="1,1,0" departPos="357.558073032" 			departSpeed="4.1"  arrivalPos="422.884912272" arrivalSpeed="0.0">
      <route edges="edgeL-7_2-7"/>
   </vehicle>
   <vehicle id="66e055033a638d395de45cc7e4b17615_0" type="type1" depart="1281.0" color="1,1,0" departPos="43.4017854041" 			departSpeed="5.6"  arrivalPos="26.914209633" arrivalSpeed="5.6">
      <route edges="edgeL-7_0-7 edgeL-7-7_2"/>
   </vehicle>
   <vehicle id="4df1f537a04f809ad402d613c4f60ac7_0" type="type1" depart="1313.0" color="1,1,0" departPos="305.202431774" 			departSpeed="10.1"  arrivalPos="18.4632962152" arrivalSpeed="12.8">
      <route edges="edgeL-1_1-1 edgeL-1-2 edgeL-2-3 edgeL-3-4 edgeL-4-5 edgeL-5-6 edgeL-6-7"/>
   </vehicle>
   <vehicle id="f2ec003d51a8f8d7c8e818d43634e740_0" type="type1" depart="1320.0" color="1,1,0" departPos="108.31257482" 			departSpeed="14.1"  arrivalPos="25.4378218867" arrivalSpeed="5.3">
      <route edges="edgeL-6_1-6 edgeL-6-5"/>
   </vehicle>
   <vehicle id="290e3037c927aac365a327e38b2eac6c_0" type="type1" depart="1334.0" color="1,1,0" departPos="89.9005851684" 			departSpeed="7.0"  arrivalPos="48.4246990612" arrivalSpeed="11.0">
      <route edges="edgeL-6_1-6 edgeL-6-7 edgeL-7-7_1"/>
   </vehicle>
   <vehicle id="0992a1a8d6d81f2170d693e68c46dc9a_0" type="type1" depart="1338.0" color="1,1,0" departPos="8.8668704643" 			departSpeed="8.7"  arrivalPos="27.6954815565" arrivalSpeed="9.9">
      <route edges="edgeL-1-2 edgeL-2-3 edgeL-3-4 edgeL-4-5"/>
   </vehicle>
   <vehicle id="7ca61fd2abac5ad30dabfd97790c1a21_0" type="type1" depart="1356.0" color="1,1,0" departPos="169.019048959" 			departSpeed="17.0"  arrivalPos="38.297231463" arrivalSpeed="12.2">
      <route edges="edgeL-7_1-7 edgeL-7-6"/>
   </vehicle>
   <vehicle id="ed90d426fe7570650d97d135b35b8c93_0" type="type1" depart="1366.0" color="1,1,0" departPos="7.13519763386" 			departSpeed="8.7"  arrivalPos="43.8067184964" arrivalSpeed="8.8">
      <route edges="edgeL-6-5"/>
   </vehicle>
   <vehicle id="496cdcfaca59e961e251d568f5316165_0" type="type1" depart="1435.0" color="1,1,0" departPos="142.194790675" 			departSpeed="6.6"  arrivalPos="339.21265308" arrivalSpeed="0.0">
      <route edges="edgeL-3-4"/>
   </vehicle>
   <vehicle id="d146aa26f521bd7a852fb3c9e609bdf2_0" type="type1" depart="1448.0" color="1,1,0" departPos="75.2931316007" 			departSpeed="17.5"  arrivalPos="4.47202193229" arrivalSpeed="8.9">
      <route edges="edgeL-6_0-6 edgeL-6-5"/>
   </vehicle>
   <vehicle id="9e9385cd97c92c76a9fa1fe054bf7627_0" type="type1" depart="1483.0" color="1,1,0" departPos="88.4789156364" 			departSpeed="11.2"  arrivalPos="25.6733746312" arrivalSpeed="7.4">
      <route edges="edgeL-6_1-6 edgeL-6-5"/>
   </vehicle>
   <vehicle id="4904a4cfcee7e5d0a2ac26ba4d261439_0" type="type1" depart="1491.0" color="1,1,0" departPos="15.3517760326" 			departSpeed="3.3"  arrivalPos="62.3019140949" arrivalSpeed="5.1">
      <route edges="edgeL-1-1_2"/>
   </vehicle>
   <vehicle id="2b3e065c5b8dfd3b502783a7d989e419_0" type="type1" depart="1494.0" color="1,1,0" departPos="4.75383880675" 			departSpeed="2.1"  arrivalPos="4.75383880675" arrivalSpeed="0.0">
      <route edges="edgeL-2-1"/>
   </vehicle>
   <vehicle id="eb03b38db809195a446295b9bce18c1f_0" type="type1" depart="1520.0" color="1,1,0" departPos="903.114383842" 			departSpeed="11.6"  arrivalPos="741.705535977" arrivalSpeed="10.7">
      <route edges="edgeL-5-6 edgeL-6-7"/>
   </vehicle>
   <vehicle id="255398584cd89def12a897ddd2c3b53d_0" type="type1" depart="1539.0" color="1,1,0" departPos="12.1351384699" 			departSpeed="4.8"  arrivalPos="24.474285421" arrivalSpeed="0.0">
      <route edges="edgeL-4-3 edgeL-3-3_0"/>
   </vehicle>
   <vehicle id="7d21a4d8c82220b953a183ef7183afc7_0" type="type1" depart="1542.0" color="1,1,0" departPos="4.18262486165" 			departSpeed="11.1"  arrivalPos="68.9586204545" arrivalSpeed="7.5">
      <route edges="edgeL-6-7 edgeL-7-7_1"/>
   </vehicle>
   <vehicle id="8bd32c860dbec528687cd7ef5566966d_0" type="type1" depart="1550.0" color="1,1,0" departPos="169.019048959" 			departSpeed="11.9"  arrivalPos="29.7812266791" arrivalSpeed="12.8">
      <route edges="edgeL-7_1-7 edgeL-7-6"/>
   </vehicle>
   <vehicle id="0023308cee4ceb45ddc43e6f5fc0346f_0" type="type1" depart="1556.0" color="1,1,0" departPos="578.593542764" 			departSpeed="11.5"  arrivalPos="369.782332642" arrivalSpeed="7.2">
      <route edges="edgeL-1-2 edgeL-2-3"/>
   </vehicle>
   <vehicle id="ed39ca3d53a06df4d213a79d049d45ba_0" type="type1" depart="1577.0" color="1,1,0" departPos="558.837223205" 			departSpeed="11.1"  arrivalPos="329.337307654" arrivalSpeed="4.2">
      <route edges="edgeL-1-2 edgeL-2-3 edgeL-3-4"/>
   </vehicle>
   <vehicle id="1701e984773fd8570503ec6b94f900eb_0" type="type1" depart="1595.0" color="1,1,0" departPos="207.920504333" 			departSpeed="0.0"  arrivalPos="21.7995325937" arrivalSpeed="3.1">
      <route edges="edgeL-5-4 edgeL-4-3"/>
   </vehicle>
   <vehicle id="280c65bec803c5a4ecbde42b2e558a16_1" type="type1" depart="1618.0" color="1,1,0" departPos="566.949372344" 			departSpeed="12.8"  arrivalPos="11.6614697945" arrivalSpeed="8.2">
      <route edges="edgeL-1-2 edgeL-2-3 edgeL-3-4 edgeL-4-4_0"/>
   </vehicle>
   <vehicle id="88a20a5421800d37fb0a23258cbed48e_0" type="type1" depart="1619.0" color="1,1,0" departPos="566.949372344" 			departSpeed="24.0"  arrivalPos="350.907118959" arrivalSpeed="10.2">
      <route edges="edgeL-1-2 edgeL-2-3"/>
   </vehicle>
   <vehicle id="2c3336dc54d25100cb32e3a4cecadb5d_0" type="type1" depart="1637.0" color="1,1,0" departPos="28.9433177451" 			departSpeed="13.1"  arrivalPos="28.9433177451" arrivalSpeed="13.1">
      <route edges="edgeL-7-6"/>
   </vehicle>
   <vehicle id="7b571b0cf617ab6c9df21c2525ed28ec_0" type="type1" depart="1642.0" color="1,1,0" departPos="6.8584659199" 			departSpeed="8.0"  arrivalPos="11.9340808565" arrivalSpeed="3.9">
      <route edges="edgeL-6-7"/>
   </vehicle>
   <vehicle id="725bf8da596a82365c5fa0b8d83cccb9_0" type="type1" depart="1652.0" color="1,1,0" departPos="72.4137542692" 			departSpeed="11.8"  arrivalPos="22.4562226718" arrivalSpeed="8.0">
      <route edges="edgeL-6_1-6 edgeL-6-5"/>
   </vehicle>
   <vehicle id="901b1652e549927fbbb3912f21300eee_0" type="type1" depart="1665.0" color="1,1,0" departPos="10.4285218381" 			departSpeed="8.6"  arrivalPos="81.4581788687" arrivalSpeed="8.9">
      <route edges="edgeL-6-7 edgeL-7-7_1"/>
   </vehicle>
   <vehicle id="4cdf13a69320ccfd80f60012f7c5e4e1_0" type="type1" depart="1689.0" color="1,1,0" departPos="54.5650287019" 			departSpeed="9.3"  arrivalPos="31.6297214882" arrivalSpeed="6.7">
      <route edges="edgeL-7_0-7 edgeL-7-7_2"/>
   </vehicle>
   <vehicle id="83c052b1a28bc63a22d6f9af7076e37b_0" type="type1" depart="1779.0" color="1,1,0" departPos="241.472625073" 			departSpeed="8.1"  arrivalPos="370.675007434" arrivalSpeed="5.2">
      <route edges="edgeL-1_1-1 edgeL-1-2 edgeL-2-3"/>
   </vehicle>
   <vehicle id="505df08799d1e660424dd798d1f7e72a_0" type="type1" depart="1794.0" color="1,1,0" departPos="174.376323307" 			departSpeed="14.3"  arrivalPos="34.012765627" arrivalSpeed="12.2">
      <route edges="edgeL-7_1-7 edgeL-7-6"/>
   </vehicle>
   <vehicle id="52375bb5b35d4311eb099483f5b6737e_1" type="type1" depart="1813.0" color="1,1,0" departPos="166.457354967" 			departSpeed="3.6"  arrivalPos="732.284359597" arrivalSpeed="0.0">
      <route edges="edgeL-3-4 edgeL-4-5"/>
   </vehicle>
   <vehicle id="a9f6bf41fdf9dcc0cfa101db2401d1a3_0" type="type1" depart="1818.0" color="1,1,0" departPos="71.9267099093" 			departSpeed="11.4"  arrivalPos="12.8742488552" arrivalSpeed="6.6">
      <route edges="edgeL-5_1-5 edgeL-5-5_0"/>
   </vehicle>
   <vehicle id="fdc48916392dce85dfdac94792cdf735_0" type="type1" depart="1826.0" color="1,1,0" departPos="582.126031155" 			departSpeed="7.5"  arrivalPos="357.252933106" arrivalSpeed="12.3">
      <route edges="edgeL-1-2 edgeL-2-3"/>
   </vehicle>
   <vehicle id="63c43893a268a5020f9d9c94417319ba_0" type="type1" depart="1838.0" color="1,1,0" departPos="11.6825211817" 			departSpeed="9.3"  arrivalPos="439.484023956" arrivalSpeed="9.6">
      <route edges="edgeL-1-2"/>
   </vehicle>
   <vehicle id="f9848af85a6294711ec7ef59c846e246_0" type="type1" depart="1852.0" color="1,1,0" departPos="16.5320126798" 			departSpeed="8.1"  arrivalPos="707.304862253" arrivalSpeed="9.0">
      <route edges="edgeL-4-5"/>
   </vehicle>
   <vehicle id="c640ddcedfa83a4f9203cf51fd0edd3f_0" type="type1" depart="1863.0" color="1,1,0" departPos="23.9602861359" 			departSpeed="19.4"  arrivalPos="3.26349285849" arrivalSpeed="8.4">
      <route edges="edgeL-6_0-6 edgeL-6-5"/>
   </vehicle>
   <vehicle id="86a6d87a193e2159d6da94ca9d6cc351_0" type="type1" depart="1885.0" color="1,1,0" departPos="10.990934272" 			departSpeed="8.9"  arrivalPos="43.8067184964" arrivalSpeed="13.4">
      <route edges="edgeL-6-5"/>
   </vehicle>
   <vehicle id="33f69c6310a502bf383d08816cf8131f_0" type="type1" depart="1946.0" color="1,1,0" departPos="14.6865951746" 			departSpeed="9.9"  arrivalPos="76.1011868012" arrivalSpeed="9.5">
      <route edges="edgeL-5-6 edgeL-6-7 edgeL-7-7_1"/>
   </vehicle>
   <vehicle id="bd6f082bca46787ce23e6922397834e9_0" type="type1" depart="1946.0" color="1,1,0" departPos="321.311128481" 			departSpeed="0.0"  arrivalPos="9.77958421896" arrivalSpeed="1.3">
      <route edges="edgeL-1_1-1 edgeL-1-2 edgeL-2-3 edgeL-3-3_1"/>
   </vehicle>
   <vehicle id="56258764d1d209b1a5bcf556c05fa4ff_0" type="type1" depart="1947.0" color="1,1,0" departPos="16.5847407963" 			departSpeed="9.9"  arrivalPos="24.7131358707" arrivalSpeed="9.5">
      <route edges="edgeL-1-2 edgeL-2-3 edgeL-3-4 edgeL-4-5 edgeL-5-6 edgeL-6-7"/>
   </vehicle>
   <vehicle id="b334c09fabf3f8fe0be7ffe1181e04b9_0" type="type1" depart="1964.0" color="1,1,0" departPos="576.369351507" 			departSpeed="5.7"  arrivalPos="581.225348388" arrivalSpeed="10.3">
      <route edges="edgeL-1_1-1 edgeL-1-2"/>
   </vehicle>
   <vehicle id="c2262c772c983687bae23401f022e826_0" type="type1" depart="1969.0" color="1,1,0" departPos="98.1119237767" 			departSpeed="2.9"  arrivalPos="30.6638563586" arrivalSpeed="5.6">
      <route edges="edgeL-7_0-7 edgeL-7-7_2"/>
   </vehicle>
   <vehicle id="9d19e93a4b79968710456d6021f42ab4_0" type="type1" depart="2014.0" color="1,1,0" departPos="68.3302513135" 			departSpeed="12.6"  arrivalPos="10.5228481827" arrivalSpeed="9.3">
      <route edges="edgeL-4_0-4 edgeL-4-4_1"/>
   </vehicle>
   <vehicle id="aa442790d82954824e736b7387626e39_0" type="type1" depart="2016.0" color="1,1,0" departPos="62.7202995259" 			departSpeed="8.9"  arrivalPos="5.32647881234" arrivalSpeed="8.9">
      <route edges="edgeL-4_0-4 edgeL-4-4_1"/>
   </vehicle>