<?xml version="1.0" encoding="UTF-8"?>

<!-- generated on Fri Dec 29 10:26:31 2017 by SUMO netconvert Version v0_31_0+1587-c313078
<?xml version="1.0" encoding="UTF-8"?>

<configuration xmlns:xsi="http://www.w3.org/2001/XMLSchema-instance" xsi:noNamespaceSchemaLocation="http://sumo.dlr.de/xsd/netconvertConfiguration.xsd">

    <input>
        <node-files value="di.nod.xml"/>
        <edge-files value="di.edg.xml"/>
        <tllogic-files value="tlLogic.netconvert.add.xml"/>
    </input>

    <output>
        <output-file value="di.net.xml"/>
    </output>

</configuration>
-->

<net version="0.27" xmlns:xsi="http://www.w3.org/2001/XMLSchema-instance" xsi:noNamespaceSchemaLocation="http://sumo.dlr.de/xsd/net_file.xsd">

    <location netOffset="-520955.00,-53371.00" convBoundary="0.00,0.00,965.00,5351.00" origBoundary="520955.00,53371.00,521920.00,58722.00" projParameter="!"/>

    <edge id=":node1_0" function="internal">
        <lane id=":node1_0_0" index="0" speed="70.00" length="22.60" width="20.00" shape="713.61,4785.33 712.12,4778.97 709.04,4775.33 704.36,4774.40 698.08,4776.19"/>
    </edge>
    <edge id=":node1_1" function="internal">
        <lane id=":node1_1_0" index="0" speed="70.00" length="51.51" width="20.00" shape="713.61,4785.33 707.67,4734.17"/>
    </edge>
    <edge id=":node1_2" function="internal">
        <lane id=":node1_2_0" index="0" speed="70.00" length="58.35" width="20.00" shape="713.61,4785.33 714.05,4768.14 718.78,4754.96 727.81,4745.79 741.13,4740.63"/>
    </edge>
    <edge id=":node1_3" function="internal">
        <lane id=":node1_3_0" index="0" speed="70.00" length="14.43" width="20.00" shape="713.61,4785.33 717.94,4777.38 722.52,4774.56"/>
    </edge>
    <edge id=":node1_16" function="internal">
        <lane id=":node1_16_0" index="0" speed="70.00" length="14.92" width="20.00" shape="722.52,4774.56 722.73,4774.43 727.96,4776.49 733.63,4783.55"/>
    </edge>
    <edge id=":node1_4" function="internal">
        <lane id=":node1_4_0" index="0" speed="70.00" length="28.62" width="20.00" shape="745.15,4760.32 739.43,4762.80 735.60,4767.49 733.67,4774.41 733.63,4783.55"/>
    </edge>
    <edge id=":node1_5" function="internal">
        <lane id=":node1_5_0" index="0" speed="70.00" length="49.69" width="20.00" shape="745.15,4760.32 736.37,4762.94 721.49,4767.87 706.67,4773.00 698.08,4776.19"/>
    </edge>
    <edge id=":node1_6" function="internal">
        <lane id=":node1_6_0" index="0" speed="70.00" length="24.99" width="20.00" shape="745.15,4760.32 730.62,4761.18 720.83,4757.58"/>
    </edge>
    <edge id=":node1_7" function="internal">
        <lane id=":node1_7_0" index="0" speed="70.00" length="13.70" width="20.00" shape="745.15,4760.32 736.76,4756.91 733.90,4753.26"/>
    </edge>
    <edge id=":node1_17" function="internal">
        <lane id=":node1_17_0" index="0" speed="70.00" length="27.75" width="20.00" shape="720.83,4757.58 719.53,4757.10 711.88,4748.10 707.67,4734.17"/>
    </edge>
    <edge id=":node1_18" function="internal">
        <lane id=":node1_18_0" index="0" speed="70.00" length="15.66" width="20.00" shape="733.90,4753.26 733.29,4752.49 734.75,4747.06 741.13,4740.63"/>
    </edge>
    <edge id=":node1_8" function="internal">
        <lane id=":node1_8_0" index="0" speed="70.00" length="19.11" width="20.00" shape="727.55,4731.15 729.07,4736.20 731.84,4739.46 735.86,4740.94 741.13,4740.63"/>
    </edge>
    <edge id=":node1_9" function="internal">
        <lane id=":node1_9_0" index="0" speed="70.00" length="52.75" width="20.00" shape="727.55,4731.15 733.63,4783.55"/>
    </edge>
    <edge id=":node1_10" function="internal">
        <lane id=":node1_10_0" index="0" speed="70.00" length="58.30" width="20.00" shape="727.55,4731.15 727.41,4745.18 722.45,4757.37 712.67,4767.71 698.08,4776.19"/>
    </edge>
    <edge id=":node1_11" function="internal">
        <lane id=":node1_11_0" index="0" speed="70.00" length="15.11" width="20.00" shape="727.55,4731.15 723.71,4739.36 719.12,4742.59 718.70,4742.46"/>
    </edge>
    <edge id=":node1_19" function="internal">
        <lane id=":node1_19_0" index="0" speed="70.00" length="14.24" width="20.00" shape="718.70,4742.46 713.77,4740.86 707.67,4734.17"/>
    </edge>
    <edge id=":node1_12" function="internal">
        <lane id=":node1_12_0" index="0" speed="70.00" length="31.92" width="20.00" shape="689.91,4757.83 698.52,4753.01 704.35,4747.46 707.40,4741.18 707.67,4734.17"/>
    </edge>
    <edge id=":node1_13" function="internal">
        <lane id=":node1_13_0" index="0" speed="70.00" length="54.04" width="20.00" shape="689.91,4757.83 699.15,4754.42 715.40,4748.84 731.70,4743.45 741.13,4740.63"/>
    </edge>
    <edge id=":node1_14" function="internal">
        <lane id=":node1_14_0" index="0" speed="70.00" length="34.05" width="20.00" shape="689.91,4757.83 707.59,4752.79 720.77,4755.40 722.21,4757.10"/>
    </edge>
    <edge id=":node1_15" function="internal">
        <lane id=":node1_15_0" index="0" speed="70.00" length="15.39" width="20.00" shape="689.91,4757.83 698.84,4759.36 703.18,4762.93 703.15,4763.64"/>
    </edge>
    <edge id=":node1_20" function="internal">
        <lane id=":node1_20_0" index="0" speed="70.00" length="29.58" width="20.00" shape="722.21,4757.10 729.45,4765.65 733.63,4783.55"/>
    </edge>
    <edge id=":node1_21" function="internal">
        <lane id=":node1_21_0" index="0" speed="70.00" length="13.96" width="20.00" shape="703.15,4763.64 702.92,4768.54 698.08,4776.19"/>
    </edge>
    <edge id=":node1_0_0" function="internal">
        <lane id=":node1_0_0_0" index="0" speed="70.00" length="29.35" width="20.00" shape="345.08,4933.18 336.15,4931.65 331.82,4928.08 332.07,4922.47 336.92,4914.82"/>
    </edge>
    <edge id=":node1_1_0" function="internal">
        <lane id=":node1_1_0_0" index="0" speed="70.00" length="29.35" width="20.00" shape="784.01,5350.11 779.67,5358.06 774.89,5361.01 769.66,5358.95 763.99,5351.89"/>
    </edge>
    <edge id=":node1_2_0" function="internal">
        <lane id=":node1_2_0_0" index="0" speed="70.00" length="29.35" width="20.00" shape="811.99,4726.15 820.38,4729.57 823.85,4733.99 822.39,4739.41 816.01,4745.85"/>
    </edge>
    <edge id=":node2_0" function="internal">
        <lane id=":node2_0_0" index="0" speed="70.00" length="24.43" width="20.00" shape="621.09,4163.61 619.04,4156.68 615.53,4153.14 610.54,4152.99 604.08,4156.23"/>
    </edge>
    <edge id=":node2_1" function="internal">
        <lane id=":node2_1_0" index="0" speed="70.00" length="101.09" width="20.00" shape="621.09,4163.61 605.96,4063.66"/>
    </edge>
    <edge id=":node2_2" function="internal">
        <lane id=":node2_2_0" index="0" speed="70.00" length="103.08" width="20.00" shape="621.09,4163.61 624.31,4146.53 632.28,4113.42 640.80,4080.39 645.63,4063.54"/>
    </edge>
    <edge id=":node2_3" function="internal">
        <lane id=":node2_3_0" index="0" speed="70.00" length="14.68" width="20.00" shape="621.09,4163.61 624.92,4155.40 629.52,4152.17"/>
    </edge>
    <edge id=":node2_16" function="internal">
        <lane id=":node2_16_0" index="0" speed="70.00" length="14.68" width="20.00" shape="629.52,4152.17 634.86,4153.90 640.96,4160.60"/>
    </edge>
    <edge id=":node2_4" function="internal">
        <lane id=":node2_4_0" index="0" speed="70.00" length="91.46" width="20.00" shape="663.83,4072.08 659.25,4087.13 651.32,4116.18 643.92,4145.32 640.96,4160.60"/>
    </edge>
    <edge id=":node2_5" function="internal">
        <lane id=":node2_5_0" index="0" speed="70.00" length="103.24" width="20.00" shape="663.83,4072.08 654.18,4086.74 634.70,4114.79 614.86,4142.53 604.08,4156.23"/>
    </edge>
    <edge id=":node2_6" function="internal">
        <lane id=":node2_6_0" index="0" speed="70.00" length="10.90" width="20.00" shape="663.83,4072.08 653.04,4070.51"/>
    </edge>
    <edge id=":node2_7" function="internal">
        <lane id=":node2_7_0" index="0" speed="70.00" length="12.92" width="20.00" shape="663.83,4072.08 656.08,4076.77 652.21,4076.87"/>
    </edge>
    <edge id=":node2_17" function="internal">
        <lane id=":node2_17_0" index="0" speed="70.00" length="47.58" width="20.00" shape="653.04,4070.51 605.96,4063.66"/>
    </edge>
    <edge id=":node2_18" function="internal">
        <lane id=":node2_18_0" index="0" speed="70.00" length="16.43" width="20.00" shape="652.21,4076.87 650.46,4076.91 646.98,4072.50 645.63,4063.54"/>
    </edge>
    <edge id=":node2_8" function="internal">
        <lane id=":node2_8_0" index="0" speed="70.00" length="39.65" width="20.00" shape="625.83,4060.66 629.00,4073.62 633.36,4078.42 638.90,4075.06 645.63,4063.54"/>
    </edge>
    <edge id=":node2_9" function="internal">
        <lane id=":node2_9_0" index="0" speed="70.00" length="101.07" width="20.00" shape="625.83,4060.66 640.96,4160.60"/>
    </edge>
    <edge id=":node2_10" function="internal">
        <lane id=":node2_10_0" index="0" speed="70.00" length="62.95" width="20.00" shape="625.83,4060.66 628.62,4094.03 625.92,4121.08 625.08,4123.20"/>
    </edge>
    <edge id=":node2_11" function="internal">
        <lane id=":node2_11_0" index="0" speed="70.00" length="14.68" width="20.00" shape="625.83,4060.66 621.99,4068.86 617.40,4072.10"/>
    </edge>
    <edge id=":node2_19" function="internal">
        <lane id=":node2_19_0" index="0" speed="70.00" length="39.87" width="20.00" shape="625.08,4123.20 617.74,4141.82 604.08,4156.23"/>
    </edge>
    <edge id=":node2_20" function="internal">
        <lane id=":node2_20_0" index="0" speed="70.00" length="14.68" width="20.00" shape="617.40,4072.10 612.05,4070.37 605.96,4063.66"/>
    </edge>
    <edge id=":node2_12" function="internal">
        <lane id=":node2_12_0" index="0" speed="70.00" length="80.48" width="20.00" shape="592.71,4139.66 601.94,4129.14 607.23,4112.97 608.57,4091.14 605.96,4063.66"/>
    </edge>
    <edge id=":node2_13" function="internal">
        <lane id=":node2_13_0" index="0" speed="70.00" length="92.75" width="20.00" shape="592.71,4139.66 602.42,4127.21 619.92,4102.24 637.05,4076.95 645.63,4063.54"/>
    </edge>
    <edge id=":node2_14" function="internal">
        <lane id=":node2_14_0" index="0" speed="70.00" length="20.66" width="20.00" shape="592.71,4139.66 611.03,4130.46 611.19,4130.47"/>
    </edge>
    <edge id=":node2_15" function="internal">
        <lane id=":node2_15_0" index="0" speed="70.00" length="11.23" width="20.00" shape="592.71,4139.66 601.77,4139.54 603.66,4140.59"/>
    </edge>
    <edge id=":node2_21" function="internal">
        <lane id=":node2_21_0" index="0" speed="70.00" length="48.66" width="20.00" shape="611.19,4130.47 625.18,4130.88 635.16,4140.93 640.96,4160.60"/>
    </edge>
    <edge id=":node2_22" function="internal">
        <lane id=":node2_22_0" index="0" speed="70.00" length="18.13" width="20.00" shape="603.66,4140.59 606.68,4142.26 607.45,4147.82 604.08,4156.23"/>
    </edge>
    <edge id=":node2_0_0" function="internal">
        <lane id=":node2_0_0_0" index="0" speed="70.00" length="29.35" width="20.00" shape="580.69,4172.29 571.63,4172.41 566.71,4169.69 565.94,4164.12 569.31,4155.71"/>
    </edge>
    <edge id=":node2_1_0" function="internal">
        <lane id=":node2_1_0_0" index="0" speed="70.00" length="29.35" width="20.00" shape="670.90,4009.73 678.66,4005.04 684.27,4004.90 687.75,4009.31 689.10,4018.27"/>
    </edge>
    <edge id=":node3_0" function="internal">
        <lane id=":node3_0_0" index="0" speed="70.00" length="18.84" width="20.00" shape="554.36,3722.34 552.87,3717.38 550.15,3714.13 546.20,3712.59 541.02,3712.77"/>
    </edge>
    <edge id=":node3_1" function="internal">
        <lane id=":node3_1_0" index="0" speed="70.00" length="43.99" width="20.00" shape="554.36,3722.34 547.69,3678.86"/>
    </edge>
    <edge id=":node3_2" function="internal">
        <lane id=":node3_2_0" index="0" speed="70.00" length="51.67" width="20.00" shape="554.36,3722.34 554.23,3708.20 558.61,3697.31 567.49,3689.68 580.87,3685.30"/>
    </edge>
    <edge id=":node3_3" function="internal">
        <lane id=":node3_3_0" index="0" speed="70.00" length="14.68" width="20.00" shape="554.36,3722.34 558.21,3714.14 562.80,3710.90"/>
    </edge>
    <edge id=":node3_16" function="internal">
        <lane id=":node3_16_0" index="0" speed="70.00" length="14.68" width="20.00" shape="562.80,3710.90 568.14,3712.63 574.24,3719.34"/>
    </edge>
    <edge id=":node3_4" function="internal">
        <lane id=":node3_4_0" index="0" speed="70.00" length="19.82" width="20.00" shape="584.36,3705.10 579.24,3706.77 575.85,3709.71 574.18,3713.89 574.24,3719.34"/>
    </edge>
    <edge id=":node3_5" function="internal">
        <lane id=":node3_5_0" index="0" speed="70.00" length="44.01" width="20.00" shape="584.36,3705.10 541.02,3712.77"/>
    </edge>
    <edge id=":node3_6" function="internal">
        <lane id=":node3_6_0" index="0" speed="70.00" length="28.16" width="20.00" shape="584.36,3705.10 570.17,3705.55 559.34,3701.33 557.83,3699.54"/>
    </edge>
    <edge id=":node3_7" function="internal">
        <lane id=":node3_7_0" index="0" speed="70.00" length="14.68" width="20.00" shape="584.36,3705.10 576.06,3701.45 572.72,3696.94"/>
    </edge>
    <edge id=":node3_17" function="internal">
        <lane id=":node3_17_0" index="0" speed="70.00" length="23.48" width="20.00" shape="557.83,3699.54 551.84,3692.43 547.69,3678.86"/>
    </edge>
    <edge id=":node3_18" function="internal">
        <lane id=":node3_18_0" index="0" speed="70.00" length="14.68" width="20.00" shape="572.72,3696.94 574.32,3691.55 580.87,3685.30"/>
    </edge>
    <edge id=":node3_8" function="internal">
        <lane id=":node3_8_0" index="0" speed="70.00" length="18.76" width="20.00" shape="567.55,3675.77 569.06,3680.70 571.78,3683.93 575.72,3685.46 580.87,3685.30"/>
    </edge>
    <edge id=":node3_9" function="internal">
        <lane id=":node3_9_0" index="0" speed="70.00" length="44.08" width="20.00" shape="567.55,3675.77 574.24,3719.34"/>
    </edge>
    <edge id=":node3_10" function="internal">
        <lane id=":node3_10_0" index="0" speed="70.00" length="51.67" width="20.00" shape="567.55,3675.77 567.73,3689.86 563.36,3700.72 554.46,3708.36 541.02,3712.77"/>
    </edge>
    <edge id=":node3_11" function="internal">
        <lane id=":node3_11_0" index="0" speed="70.00" length="14.68" width="20.00" shape="567.55,3675.77 563.75,3683.99 559.17,3687.24"/>
    </edge>
    <edge id=":node3_19" function="internal">
        <lane id=":node3_19_0" index="0" speed="70.00" length="14.68" width="20.00" shape="559.17,3687.24 553.82,3685.54 547.69,3678.86"/>
    </edge>
    <edge id=":node3_12" function="internal">
        <lane id=":node3_12_0" index="0" speed="70.00" length="19.77" width="20.00" shape="537.49,3692.98 542.65,3691.29 546.07,3688.38 547.75,3684.23 547.69,3678.86"/>
    </edge>
    <edge id=":node3_13" function="internal">
        <lane id=":node3_13_0" index="0" speed="70.00" length="44.06" width="20.00" shape="537.49,3692.98 580.87,3685.30"/>
    </edge>
    <edge id=":node3_14" function="internal">
        <lane id=":node3_14_0" index="0" speed="70.00" length="28.28" width="20.00" shape="537.49,3692.98 551.75,3692.50 562.63,3696.73 564.13,3698.52"/>
    </edge>
    <edge id=":node3_15" function="internal">
        <lane id=":node3_15_0" index="0" speed="70.00" length="14.68" width="20.00" shape="537.49,3692.98 545.79,3696.61 549.15,3701.11"/>
    </edge>
    <edge id=":node3_20" function="internal">
        <lane id=":node3_20_0" index="0" speed="70.00" length="23.60" width="20.00" shape="564.13,3698.52 570.13,3705.67 574.24,3719.34"/>
    </edge>
    <edge id=":node3_21" function="internal">
        <lane id=":node3_21_0" index="0" speed="70.00" length="14.68" width="20.00" shape="549.15,3701.11 547.56,3706.50 541.02,3712.77"/>
    </edge>
    <edge id=":node3_0_0" function="internal">
        <lane id=":node3_0_0_0" index="0" speed="70.00" length="29.35" width="20.00" shape="433.76,3731.89 425.46,3728.27 422.11,3723.76 423.70,3718.38 430.24,3712.11"/>
    </edge>
    <edge id=":node3_1_0" function="internal">
        <lane id=":node3_1_0_0" index="0" speed="70.00" length="29.35" width="20.00" shape="775.26,3651.10 783.55,3654.75 786.90,3659.26 785.29,3664.64 778.74,3670.90"/>
    </edge>
    <edge id=":node4_0" function="internal">
        <lane id=":node4_0_0" index="0" speed="70.00" length="20.95" width="20.00" shape="492.42,3324.07 490.79,3318.57 487.85,3314.71 483.60,3312.50 478.06,3311.94"/>
    </edge>
    <edge id=":node4_1" function="internal">
        <lane id=":node4_1_0" index="0" speed="70.00" length="46.79" width="20.00" shape="492.42,3324.07 491.45,3315.41 490.06,3300.80 488.78,3286.18 488.15,3277.48"/>
    </edge>
    <edge id=":node4_2" function="internal">
        <lane id=":node4_2_0" index="0" speed="70.00" length="53.05" width="20.00" shape="492.42,3324.07 492.38,3309.96 497.16,3299.18 506.76,3291.75 521.19,3287.66"/>
    </edge>
    <edge id=":node4_3" function="internal">
        <lane id=":node4_3_0" index="0" speed="70.00" length="15.21" width="20.00" shape="492.42,3324.07 496.23,3315.85 500.81,3312.60 501.31,3312.76"/>
    </edge>
    <edge id=":node4_16" function="internal">
        <lane id=":node4_16_0" index="0" speed="70.00" length="14.15" width="20.00" shape="501.31,3312.76 506.16,3314.31 512.28,3320.98"/>
    </edge>
    <edge id=":node4_4" function="internal">
        <lane id=":node4_4_0" index="0" speed="70.00" length="20.38" width="20.00" shape="524.05,3307.55 518.23,3309.12 514.33,3311.88 512.35,3315.84 512.28,3320.98"/>
    </edge>
    <edge id=":node4_5" function="internal">
        <lane id=":node4_5_0" index="0" speed="70.00" length="46.21" width="20.00" shape="524.05,3307.55 515.48,3308.51 501.07,3309.93 486.66,3311.27 478.06,3311.94"/>
    </edge>
    <edge id=":node4_6" function="internal">
        <lane id=":node4_6_0" index="0" speed="70.00" length="54.84" width="20.00" shape="524.05,3307.55 508.79,3307.54 497.72,3302.53 490.84,3292.51 488.15,3277.48"/>
    </edge>
    <edge id=":node4_7" function="internal">
        <lane id=":node4_7_0" index="0" speed="70.00" length="15.09" width="20.00" shape="524.05,3307.55 515.88,3303.65 512.68,3299.03 512.81,3298.65"/>
    </edge>
    <edge id=":node4_17" function="internal">
        <lane id=":node4_17_0" index="0" speed="70.00" length="14.27" width="20.00" shape="512.81,3298.65 514.45,3293.70 521.19,3287.66"/>
    </edge>
    <edge id=":node4_8" function="internal">
        <lane id=":node4_8_0" index="0" speed="70.00" length="19.78" width="20.00" shape="508.24,3276.81 509.21,3282.23 511.69,3285.84 515.69,3287.65 521.19,3287.66"/>
    </edge>
    <edge id=":node4_9" function="internal">
        <lane id=":node4_9_0" index="0" speed="70.00" length="44.36" width="20.00" shape="508.24,3276.81 508.84,3285.12 510.04,3298.92 511.35,3312.70 512.28,3320.98"/>
    </edge>
    <edge id=":node4_10" function="internal">
        <lane id=":node4_10_0" index="0" speed="70.00" length="52.70" width="20.00" shape="508.24,3276.81 506.78,3291.68 501.26,3302.50 491.69,3309.25 478.06,3311.94"/>
    </edge>
    <edge id=":node4_11" function="internal">
        <lane id=":node4_11_0" index="0" speed="70.00" length="14.27" width="20.00" shape="508.24,3276.81 503.47,3284.51 498.89,3287.00"/>
    </edge>
    <edge id=":node4_18" function="internal">
        <lane id=":node4_18_0" index="0" speed="70.00" length="15.08" width="20.00" shape="498.89,3287.00 498.54,3287.19 493.43,3284.85 488.15,3277.48"/>
    </edge>
    <edge id=":node4_12" function="internal">
        <lane id=":node4_12_0" index="0" speed="70.00" length="20.50" width="20.00" shape="477.21,3291.86 482.18,3290.78 485.65,3288.02 487.64,3283.59 488.15,3277.48"/>
    </edge>
    <edge id=":node4_13" function="internal">
        <lane id=":node4_13_0" index="0" speed="70.00" length="44.18" width="20.00" shape="477.21,3291.86 485.50,3291.21 499.22,3289.94 512.94,3288.58 521.19,3287.66"/>
    </edge>
    <edge id=":node4_14" function="internal">
        <lane id=":node4_14_0" index="0" speed="70.00" length="50.79" width="20.00" shape="477.21,3291.86 490.78,3293.20 501.15,3298.50 508.32,3307.76 512.28,3320.98"/>
    </edge>
    <edge id=":node4_15" function="internal">
        <lane id=":node4_15_0" index="0" speed="70.00" length="14.30" width="20.00" shape="477.21,3291.86 484.96,3296.56 487.49,3301.15"/>
    </edge>
    <edge id=":node4_19" function="internal">
        <lane id=":node4_19_0" index="0" speed="70.00" length="15.06" width="20.00" shape="487.49,3301.15 487.68,3301.48 485.38,3306.60 478.06,3311.94"/>
    </edge>
    <edge id=":node4_0_0" function="internal">
        <lane id=":node4_0_0_0" index="0" speed="70.00" length="29.35" width="20.00" shape="0.42,3332.04 -7.32,3327.34 -10.04,3322.42 -7.74,3317.30 -0.42,3311.96"/>
    </edge>
    <edge id=":node4_1_0" function="internal">
        <lane id=":node4_1_0_0" index="0" speed="70.00" length="29.35" width="20.00" shape="963.57,3224.05 971.75,3227.95 974.95,3232.57 973.18,3237.90 966.43,3243.95"/>
    </edge>
    <edge id=":node5_0" function="internal">
        <lane id=":node5_0_0" index="0" speed="70.00" length="31.41" width="20.00" shape="463.61,2548.42 462.15,2538.52 458.61,2534.06 452.99,2535.03 445.30,2541.43"/>
    </edge>
    <edge id=":node5_1" function="internal">
        <lane id=":node5_1_0" index="0" speed="70.00" length="128.92" width="20.00" shape="463.61,2548.42 461.23,2419.52"/>
    </edge>
    <edge id=":node5_2" function="internal">
        <lane id=":node5_2_0" index="0" speed="70.00" length="129.74" width="20.00" shape="463.61,2548.42 469.02,2527.52 481.28,2486.07 494.01,2444.74 500.86,2424.17"/>
    </edge>
    <edge id=":node5_3" function="internal">
        <lane id=":node5_3_0" index="0" speed="70.00" length="14.90" width="20.00" shape="463.61,2548.42 468.38,2540.72 473.31,2538.04 473.52,2538.13"/>
    </edge>
    <edge id=":node5_16" function="internal">
        <lane id=":node5_16_0" index="0" speed="70.00" length="14.45" width="20.00" shape="473.52,2538.13 478.42,2540.38 483.70,2547.75"/>
    </edge>
    <edge id=":node5_4" function="internal">
        <lane id=":node5_4_0" index="0" speed="70.00" length="119.29" width="20.00" shape="518.56,2433.69 512.09,2452.67 500.17,2490.50 488.74,2528.44 483.70,2547.75"/>
    </edge>
    <edge id=":node5_5" function="internal">
        <lane id=":node5_5_0" index="0" speed="70.00" length="130.29" width="20.00" shape="518.56,2433.69 506.60,2451.87 482.34,2487.86 457.87,2523.69 445.30,2541.43"/>
    </edge>
    <edge id=":node5_6" function="internal">
        <lane id=":node5_6_0" index="0" speed="70.00" length="10.63" width="20.00" shape="518.56,2433.69 508.24,2431.14"/>
    </edge>
    <edge id=":node5_7" function="internal">
        <lane id=":node5_7_0" index="0" speed="70.00" length="12.77" width="20.00" shape="518.56,2433.69 510.56,2437.95 506.85,2437.84"/>
    </edge>
    <edge id=":node5_17" function="internal">
        <lane id=":node5_17_0" index="0" speed="70.00" length="48.43" width="20.00" shape="508.24,2431.14 461.23,2419.52"/>
    </edge>
    <edge id=":node5_18" function="internal">
        <lane id=":node5_18_0" index="0" speed="70.00" length="16.58" width="20.00" shape="506.85,2437.84 504.94,2437.78 501.71,2433.19 500.86,2424.17"/>
    </edge>
    <edge id=":node5_8" function="internal">
        <lane id=":node5_8_0" index="0" speed="70.00" length="45.09" width="20.00" shape="481.33,2419.34 482.68,2434.81 486.39,2440.77 492.45,2437.22 500.86,2424.17"/>
    </edge>
    <edge id=":node5_9" function="internal">
        <lane id=":node5_9_0" index="0" speed="70.00" length="128.43" width="20.00" shape="481.33,2419.34 483.70,2547.75"/>
    </edge>
    <edge id=":node5_10" function="internal">
        <lane id=":node5_10_0" index="0" speed="70.00" length="127.35" width="20.00" shape="481.33,2419.34 476.20,2440.02 464.63,2480.90 452.40,2521.53 445.30,2541.43"/>
    </edge>
    <edge id=":node5_11" function="internal">
        <lane id=":node5_11_0" index="0" speed="70.00" length="14.68" width="20.00" shape="481.33,2419.34 476.37,2426.92 471.37,2429.48"/>
    </edge>
    <edge id=":node5_19" function="internal">
        <lane id=":node5_19_0" index="0" speed="70.00" length="14.68" width="20.00" shape="471.37,2429.48 466.32,2427.01 461.23,2419.52"/>
    </edge>
    <edge id=":node5_12" function="internal">
        <lane id=":node5_12_0" index="0" speed="70.00" length="112.28" width="20.00" shape="430.78,2527.53 437.00,2509.83 447.32,2474.05 456.97,2438.00 461.23,2419.52"/>
    </edge>
    <edge id=":node5_13" function="internal">
        <lane id=":node5_13_0" index="0" speed="70.00" length="124.88" width="20.00" shape="430.78,2527.53 442.86,2510.47 466.23,2476.14 489.39,2441.67 500.86,2424.17"/>
    </edge>
    <edge id=":node5_14" function="internal">
        <lane id=":node5_14_0" index="0" speed="70.00" length="32.11" width="20.00" shape="430.78,2527.53 453.01,2509.02 456.15,2508.48"/>
    </edge>
    <edge id=":node5_15" function="internal">
        <lane id=":node5_15_0" index="0" speed="70.00" length="13.07" width="20.00" shape="430.78,2527.53 439.62,2525.56 443.45,2526.74"/>
    </edge>
    <edge id=":node5_20" function="internal">
        <lane id=":node5_20_0" index="0" speed="70.00" length="58.68" width="20.00" shape="456.15,2508.48 469.24,2506.22 479.47,2519.13 483.70,2547.75"/>
    </edge>
    <edge id=":node5_21" function="internal">
        <lane id=":node5_21_0" index="0" speed="70.00" length="16.29" width="20.00" shape="443.45,2526.74 444.99,2527.22 446.88,2532.51 445.30,2541.43"/>
    </edge>
    <edge id=":node5_0_0" function="internal">
        <lane id=":node5_0_0_0" index="0" speed="70.00" length="29.35" width="20.00" shape="412.26,2575.95 403.42,2577.92 398.05,2576.26 396.16,2570.97 397.74,2562.05"/>
    </edge>
    <edge id=":node5_1_0" function="internal">
        <lane id=":node5_1_0_0" index="0" speed="70.00" length="29.35" width="20.00" shape="696.15,2061.24 704.15,2056.98 709.76,2057.15 713.00,2061.74 713.85,2070.76"/>
    </edge>
    <edge id=":node6_0" function="internal">
        <lane id=":node6_0_0" index="0" speed="70.00" length="40.52" width="20.00" shape="453.30,1549.00 452.14,1535.50 448.90,1525.47 443.61,1518.89 436.26,1515.78"/>
    </edge>
    <edge id=":node6_1" function="internal">
        <lane id=":node6_1_0" index="0" speed="70.00" length="64.31" width="20.00" shape="453.30,1549.00 452.61,1484.69"/>
    </edge>
    <edge id=":node6_2" function="internal">
        <lane id=":node6_2_0" index="0" speed="70.00" length="76.91" width="20.00" shape="453.30,1549.00 456.09,1525.74 464.99,1513.63 479.98,1512.66 501.08,1522.83"/>
    </edge>
    <edge id=":node6_3" function="internal">
        <lane id=":node6_3_0" index="0" speed="70.00" length="14.68" width="20.00" shape="453.30,1549.00 458.26,1541.42 463.26,1538.86"/>
    </edge>
    <edge id=":node6_16" function="internal">
        <lane id=":node6_16_0" index="0" speed="70.00" length="14.68" width="20.00" shape="463.26,1538.86 468.31,1541.33 473.40,1548.82"/>
    </edge>
    <edge id=":node6_4" function="internal">
        <lane id=":node6_4_0" index="0" speed="70.00" length="26.89" width="20.00" shape="490.11,1539.67 482.73,1536.11 477.49,1536.45 474.38,1540.69 473.40,1548.82"/>
    </edge>
    <edge id=":node6_5" function="internal">
        <lane id=":node6_5_0" index="0" speed="70.00" length="58.94" width="20.00" shape="490.11,1539.67 480.62,1534.90 463.46,1527.01 446.16,1519.47 436.26,1515.78"/>
    </edge>
    <edge id=":node6_6" function="internal">
        <lane id=":node6_6_0" index="0" speed="70.00" length="69.24" width="20.00" shape="490.11,1539.67 473.86,1527.17 462.19,1513.84 455.11,1499.68 452.61,1484.69"/>
    </edge>
    <edge id=":node6_7" function="internal">
        <lane id=":node6_7_0" index="0" speed="70.00" length="13.35" width="20.00" shape="490.11,1539.67 486.54,1531.34 487.03,1527.08"/>
    </edge>
    <edge id=":node6_17" function="internal">
        <lane id=":node6_17_0" index="0" speed="70.00" length="16.00" width="20.00" shape="487.03,1527.08 487.18,1525.76 492.03,1522.92 501.08,1522.83"/>
    </edge>
    <edge id=":node6_8" function="internal">
        <lane id=":node6_8_0" index="0" speed="70.00" length="49.58" width="20.00" shape="472.71,1484.42 474.58,1494.35 479.94,1504.07 488.77,1513.56 501.08,1522.83"/>
    </edge>
    <edge id=":node6_9" function="internal">
        <lane id=":node6_9_0" index="0" speed="70.00" length="64.40" width="20.00" shape="472.71,1484.42 473.40,1548.82"/>
    </edge>
    <edge id=":node6_10" function="internal">
        <lane id=":node6_10_0" index="0" speed="70.00" length="57.37" width="20.00" shape="472.71,1484.42 470.62,1500.42 463.85,1510.98 452.39,1516.10 436.26,1515.78"/>
    </edge>
    <edge id=":node6_11" function="internal">
        <lane id=":node6_11_0" index="0" speed="70.00" length="14.68" width="20.00" shape="472.71,1484.42 467.78,1492.03 462.79,1494.60"/>
    </edge>
    <edge id=":node6_18" function="internal">
        <lane id=":node6_18_0" index="0" speed="70.00" length="14.68" width="20.00" shape="462.79,1494.60 457.74,1492.16 452.61,1484.69"/>
    </edge>
    <edge id=":node6_12" function="internal">
        <lane id=":node6_12_0" index="0" speed="70.00" length="20.59" width="20.00" shape="439.53,1495.95 445.32,1496.06 449.43,1494.23 451.86,1490.43 452.61,1484.69"/>
    </edge>
    <edge id=":node6_13" function="internal">
        <lane id=":node6_13_0" index="0" speed="70.00" length="67.20" width="20.00" shape="439.53,1495.95 450.64,1500.11 470.58,1508.67 490.39,1517.59 501.08,1522.83"/>
    </edge>
    <edge id=":node6_14" function="internal">
        <lane id=":node6_14_0" index="0" speed="70.00" length="68.83" width="20.00" shape="439.53,1495.95 454.19,1501.32 464.72,1511.92 471.12,1527.75 473.40,1548.82"/>
    </edge>
    <edge id=":node6_15" function="internal">