<?xml version="1.0" encoding="UTF-8"?>

<!-- generated on Fri Dec 22 14:34:50 2017 by SUMO netconvert Version v0_31_0+1587-c313078
<?xml version="1.0" encoding="UTF-8"?>

<configuration xmlns:xsi="http://www.w3.org/2001/XMLSchema-instance" xsi:noNamespaceSchemaLocation="http://sumo.dlr.de/xsd/netconvertConfiguration.xsd">

    <input>
        <node-files value="di.nod.xml"/>
        <edge-files value="di.edg.xml"/>
    </input>

    <output>
        <output-file value="di.net.xml"/>
    </output>

</configuration>
-->

<net version="0.27" xmlns:xsi="http://www.w3.org/2001/XMLSchema-instance" xsi:noNamespaceSchemaLocation="http://sumo.dlr.de/xsd/net_file.xsd">

    <location netOffset="-520955.00,-53371.00" convBoundary="0.00,0.00,965.00,5351.00" origBoundary="520955.00,53371.00,521920.00,58722.00" projParameter="!"/>

    <edge id=":node1_0" function="internal">
        <lane id=":node1_0_0" index="0" speed="70.00" length="23.17" width="20.00" shape="714.59,4769.51 713.09,4762.93 709.95,4759.24 705.17,4758.44 698.76,4760.53"/>
    </edge>
    <edge id=":node1_1" function="internal">
        <lane id=":node1_1_0" index="0" speed="70.00" length="49.22" width="20.00" shape="714.59,4769.51 709.21,4720.58"/>
    </edge>
    <edge id=":node1_2" function="internal">
        <lane id=":node1_2_0" index="0" speed="70.00" length="33.32" width="20.00" shape="714.59,4769.51 715.15,4751.38 720.34,4738.33 721.23,4737.61"/>
    </edge>
    <edge id=":node1_3" function="internal">
        <lane id=":node1_3_0" index="0" speed="70.00" length="14.45" width="20.00" shape="714.59,4769.51 718.96,4761.57 723.56,4758.76"/>
    </edge>
    <edge id=":node1_16" function="internal">
        <lane id=":node1_16_0" index="0" speed="70.00" length="26.26" width="20.00" shape="721.23,4737.61 730.17,4730.36 744.63,4727.46"/>
    </edge>
    <edge id=":node1_17" function="internal">
        <lane id=":node1_17_0" index="0" speed="70.00" length="14.90" width="20.00" shape="723.56,4758.76 723.75,4758.64 728.97,4760.72 734.61,4767.81"/>
    </edge>
    <edge id=":node1_4" function="internal">
        <lane id=":node1_4_0" index="0" speed="70.00" length="25.86" width="20.00" shape="745.07,4747.55 739.86,4748.92 736.38,4752.75 734.63,4759.04 734.61,4767.81"/>
    </edge>
    <edge id=":node1_5" function="internal">
        <lane id=":node1_5_0" index="0" speed="70.00" length="48.13" width="20.00" shape="745.07,4747.55 736.35,4749.32 721.72,4753.26 707.19,4757.59 698.76,4760.53"/>
    </edge>
    <edge id=":node1_6" function="internal">
        <lane id=":node1_6_0" index="0" speed="70.00" length="22.15" width="20.00" shape="745.07,4747.55 730.94,4746.12 723.73,4742.77"/>
    </edge>
    <edge id=":node1_7" function="internal">
        <lane id=":node1_7_0" index="0" speed="70.00" length="12.58" width="20.00" shape="745.07,4747.55 737.42,4742.69 735.78,4739.57"/>
    </edge>
    <edge id=":node1_18" function="internal">
        <lane id=":node1_18_0" index="0" speed="70.00" length="27.65" width="20.00" shape="723.73,4742.77 720.26,4741.15 713.01,4732.64 709.21,4720.58"/>
    </edge>
    <edge id=":node1_19" function="internal">
        <lane id=":node1_19_0" index="0" speed="70.00" length="16.77" width="20.00" shape="735.78,4739.57 734.80,4737.72 737.20,4732.64 744.63,4727.46"/>
    </edge>
    <edge id=":node1_8" function="internal">
        <lane id=":node1_8_0" index="0" speed="70.00" length="20.35" width="20.00" shape="729.08,4717.58 730.63,4722.01 733.74,4725.14 738.40,4726.95 744.63,4727.46"/>
    </edge>
    <edge id=":node1_9" function="internal">
        <lane id=":node1_9_0" index="0" speed="70.00" length="50.53" width="20.00" shape="729.08,4717.58 734.61,4767.81"/>
    </edge>
    <edge id=":node1_10" function="internal">
        <lane id=":node1_10_0" index="0" speed="70.00" length="27.45" width="20.00" shape="729.08,4717.58 728.67,4730.09 723.48,4741.42 721.75,4743.18"/>
    </edge>
    <edge id=":node1_11" function="internal">
        <lane id=":node1_11_0" index="0" speed="70.00" length="15.17" width="20.00" shape="729.08,4717.58 725.24,4725.78 720.64,4729.02 720.18,4728.87"/>
    </edge>
    <edge id=":node1_20" function="internal">
        <lane id=":node1_20_0" index="0" speed="70.00" length="29.02" width="20.00" shape="721.75,4743.18 713.51,4751.57 698.76,4760.53"/>
    </edge>
    <edge id=":node1_21" function="internal">
        <lane id=":node1_21_0" index="0" speed="70.00" length="14.19" width="20.00" shape="720.18,4728.87 715.30,4727.28 709.21,4720.58"/>
    </edge>
    <edge id=":node1_12" function="internal">
        <lane id=":node1_12_0" index="0" speed="70.00" length="30.99" width="20.00" shape="689.94,4742.47 699.03,4737.25 705.27,4731.86 708.66,4726.31 709.21,4720.58"/>
    </edge>
    <edge id=":node1_13" function="internal">
        <lane id=":node1_13_0" index="0" speed="70.00" length="56.75" width="20.00" shape="689.94,4742.47 699.68,4739.21 717.10,4734.18 734.61,4729.54 744.63,4727.46"/>
    </edge>
    <edge id=":node1_14" function="internal">
        <lane id=":node1_14_0" index="0" speed="70.00" length="37.11" width="20.00" shape="689.94,4742.47 708.05,4736.58 721.53,4738.83 724.38,4742.19"/>
    </edge>
    <edge id=":node1_15" function="internal">
        <lane id=":node1_15_0" index="0" speed="70.00" length="15.92" width="20.00" shape="689.94,4742.47 698.92,4743.68 703.38,4747.09 703.37,4748.33"/>
    </edge>
    <edge id=":node1_22" function="internal">
        <lane id=":node1_22_0" index="0" speed="70.00" length="28.31" width="20.00" shape="724.38,4742.19 730.38,4749.25 734.61,4767.81"/>
    </edge>
    <edge id=":node1_23" function="internal">
        <lane id=":node1_23_0" index="0" speed="70.00" length="13.43" width="20.00" shape="703.37,4748.33 703.33,4752.71 698.76,4760.53"/>
    </edge>
    <edge id=":node1_0_0" function="internal">
        <lane id=":node1_0_0_0" index="0" speed="70.00" length="29.35" width="20.00" shape="345.41,4933.03 336.43,4931.82 331.97,4928.41 332.02,4922.79 336.59,4914.97"/>
    </edge>
    <edge id=":node1_1_0" function="internal">
        <lane id=":node1_1_0_0" index="0" speed="70.00" length="29.35" width="20.00" shape="784.01,5350.15 779.64,5358.09 774.85,5361.01 769.63,5358.94 763.99,5351.85"/>
    </edge>
    <edge id=":node1_2_0" function="internal">
        <lane id=":node1_2_0_0" index="0" speed="70.00" length="29.35" width="20.00" shape="813.78,4725.95 821.43,4730.81 824.05,4735.78 821.64,4740.86 814.22,4746.05"/>
    </edge>
    <edge id=":node2_0" function="internal">
        <lane id=":node2_0_0" index="0" speed="70.00" length="31.05" width="20.00" shape="622.27,4144.27 619.70,4134.75 615.68,4130.75 610.23,4132.28 603.34,4139.34"/>
    </edge>
    <edge id=":node2_1" function="internal">
        <lane id=":node2_1_0" index="0" speed="70.00" length="58.39" width="20.00" shape="622.27,4144.27 613.59,4086.53"/>
    </edge>
    <edge id=":node2_2" function="internal">
        <lane id=":node2_2_0" index="0" speed="70.00" length="14.68" width="20.00" shape="622.27,4144.27 626.11,4136.07 630.71,4132.83"/>
    </edge>
    <edge id=":node2_9" function="internal">
        <lane id=":node2_9_0" index="0" speed="70.00" length="14.68" width="20.00" shape="630.71,4132.83 636.05,4134.57 642.14,4141.27"/>
    </edge>
    <edge id=":node2_3" function="internal">
        <lane id=":node2_3_0" index="0" speed="70.00" length="58.33" width="20.00" shape="633.48,4083.59 642.14,4141.27"/>
    </edge>
    <edge id=":node2_4" function="internal">
        <lane id=":node2_4_0" index="0" speed="70.00" length="23.09" width="20.00" shape="633.48,4083.59 632.38,4092.39 626.99,4104.62 626.53,4105.35"/>
    </edge>
    <edge id=":node2_5" function="internal">
        <lane id=":node2_5_0" index="0" speed="70.00" length="14.68" width="20.00" shape="633.48,4083.59 629.61,4091.78 625.00,4095.00"/>
    </edge>
    <edge id=":node2_10" function="internal">
        <lane id=":node2_10_0" index="0" speed="70.00" length="41.18" width="20.00" shape="626.53,4105.35 617.31,4120.27 603.34,4139.34"/>
    </edge>
    <edge id=":node2_11" function="internal">
        <lane id=":node2_11_0" index="0" speed="70.00" length="14.68" width="20.00" shape="625.00,4095.00 619.66,4093.25 613.59,4086.53"/>
    </edge>
    <edge id=":node2_6" function="internal">
        <lane id=":node2_6_0" index="0" speed="70.00" length="48.48" width="20.00" shape="587.45,4127.02 599.20,4111.44 607.48,4099.50 612.27,4091.19 613.59,4086.53"/>
    </edge>
    <edge id=":node2_7" function="internal">
        <lane id=":node2_7_0" index="0" speed="70.00" length="89.70" width="20.00" shape="587.45,4127.02 607.36,4106.64 623.12,4102.22 634.71,4113.77 642.14,4141.27"/>
    </edge>
    <edge id=":node2_8" function="internal">
        <lane id=":node2_8_0" index="0" speed="70.00" length="15.88" width="20.00" shape="587.45,4127.02 596.04,4124.14 601.55,4125.23 602.07,4126.32"/>
    </edge>
    <edge id=":node2_12" function="internal">
        <lane id=":node2_12_0" index="0" speed="70.00" length="13.47" width="20.00" shape="602.07,4126.32 603.98,4130.30 603.34,4139.34"/>
    </edge>
    <edge id=":node2_0_0" function="internal">
        <lane id=":node2_0_0_0" index="0" speed="70.00" length="29.35" width="20.00" shape="594.94,4150.16 586.35,4153.04 580.84,4151.94 578.41,4146.88 579.06,4137.84"/>
    </edge>
    <edge id=":node3_0" function="internal">
        <lane id=":node3_0_0" index="0" speed="70.00" length="19.72" width="20.00" shape="558.52,3712.96 556.95,3707.70 554.09,3704.39 549.93,3703.03 544.48,3703.62"/>
    </edge>
    <edge id=":node3_1" function="internal">
        <lane id=":node3_1_0" index="0" speed="70.00" length="44.14" width="20.00" shape="558.52,3712.96 551.56,3669.37"/>
    </edge>
    <edge id=":node3_2" function="internal">
        <lane id=":node3_2_0" index="0" speed="70.00" length="29.12" width="20.00" shape="558.52,3712.96 558.35,3697.99 562.79,3686.72 564.35,3685.41"/>
    </edge>
    <edge id=":node3_3" function="internal">
        <lane id=":node3_3_0" index="0" speed="70.00" length="14.68" width="20.00" shape="558.52,3712.96 562.39,3704.77 567.00,3701.55"/>
    </edge>
    <edge id=":node3_16" function="internal">
        <lane id=":node3_16_0" index="0" speed="70.00" length="23.98" width="20.00" shape="564.35,3685.41 571.84,3679.14 585.50,3675.26"/>
    </edge>
    <edge id=":node3_17" function="internal">
        <lane id=":node3_17_0" index="0" speed="70.00" length="14.68" width="20.00" shape="567.00,3701.55 572.34,3703.31 578.41,3710.03"/>
    </edge>
    <edge id=":node3_4" function="internal">
        <lane id=":node3_4_0" index="0" speed="70.00" length="20.23" width="20.00" shape="588.04,3695.20 583.09,3696.68 579.83,3699.64 578.27,3704.09 578.41,3710.03"/>
    </edge>
    <edge id=":node3_5" function="internal">
        <lane id=":node3_5_0" index="0" speed="70.00" length="44.37" width="20.00" shape="588.04,3695.20 579.82,3696.60 566.22,3699.18 552.63,3701.87 544.48,3703.62"/>
    </edge>
    <edge id=":node3_6" function="internal">
        <lane id=":node3_6_0" index="0" speed="70.00" length="27.00" width="20.00" shape="588.04,3695.20 574.03,3695.08 563.27,3690.73 562.36,3689.69"/>
    </edge>
    <edge id=":node3_7" function="internal">
        <lane id=":node3_7_0" index="0" speed="70.00" length="14.21" width="20.00" shape="588.04,3695.20 579.93,3691.16 577.06,3686.89"/>
    </edge>
    <edge id=":node3_18" function="internal">
        <lane id=":node3_18_0" index="0" speed="70.00" length="23.46" width="20.00" shape="562.36,3689.69 555.78,3682.16 551.56,3669.37"/>
    </edge>
    <edge id=":node3_19" function="internal">
        <lane id=":node3_19_0" index="0" speed="70.00" length="15.15" width="20.00" shape="577.06,3686.89 576.80,3686.50 578.66,3681.19 585.50,3675.26"/>
    </edge>
    <edge id=":node3_8" function="internal">
        <lane id=":node3_8_0" index="0" speed="70.00" length="19.12" width="20.00" shape="571.36,3665.93 572.96,3670.59 575.84,3673.70 580.03,3675.26 585.50,3675.26"/>
    </edge>
    <edge id=":node3_9" function="internal">
        <lane id=":node3_9_0" index="0" speed="70.00" length="44.66" width="20.00" shape="571.36,3665.93 578.41,3710.03"/>
    </edge>
    <edge id=":node3_10" function="internal">
        <lane id=":node3_10_0" index="0" speed="70.00" length="27.64" width="20.00" shape="571.36,3665.93 571.61,3679.35 567.21,3690.10 565.27,3691.83"/>
    </edge>
    <edge id=":node3_11" function="internal">
        <lane id=":node3_11_0" index="0" speed="70.00" length="14.89" width="20.00" shape="571.36,3665.93 567.70,3674.21 563.18,3677.55 562.98,3677.49"/>
    </edge>
    <edge id=":node3_20" function="internal">
        <lane id=":node3_20_0" index="0" speed="70.00" length="24.26" width="20.00" shape="565.27,3691.83 558.16,3698.19 544.48,3703.62"/>
    </edge>
    <edge id=":node3_21" function="internal">
        <lane id=":node3_21_0" index="0" speed="70.00" length="14.47" width="20.00" shape="562.98,3677.49 557.80,3675.93 551.56,3669.37"/>
    </edge>
    <edge id=":node3_12" function="internal">
        <lane id=":node3_12_0" index="0" speed="70.00" length="21.32" width="20.00" shape="539.50,3684.15 545.51,3681.88 549.52,3678.66 551.54,3674.49 551.56,3669.37"/>
    </edge>
    <edge id=":node3_13" function="internal">
        <lane id=":node3_13_0" index="0" speed="70.00" length="46.86" width="20.00" shape="539.50,3684.15 548.04,3682.32 562.46,3679.47 576.90,3676.74 585.50,3675.26"/>
    </edge>
    <edge id=":node3_14" function="internal">
        <lane id=":node3_14_0" index="0" speed="70.00" length="30.42" width="20.00" shape="539.50,3684.15 554.61,3682.52 566.13,3686.29 568.16,3688.64"/>
    </edge>
    <edge id=":node3_15" function="internal">
        <lane id=":node3_15_0" index="0" speed="70.00" length="15.17" width="20.00" shape="539.50,3684.15 548.05,3687.15 551.73,3691.39 551.62,3691.88"/>
    </edge>
    <edge id=":node3_22" function="internal">
        <lane id=":node3_22_0" index="0" speed="70.00" length="24.23" width="20.00" shape="568.16,3688.64 574.07,3695.46 578.41,3710.03"/>
    </edge>
    <edge id=":node3_23" function="internal">
        <lane id=":node3_23_0" index="0" speed="70.00" length="14.18" width="20.00" shape="551.62,3691.88 550.54,3696.88 544.48,3703.62"/>
    </edge>
    <edge id=":node3_0_0" function="internal">
        <lane id=":node3_0_0_0" index="0" speed="70.00" length="29.35" width="20.00" shape="434.49,3731.74 425.94,3728.74 422.26,3724.49 423.45,3719.00 429.51,3712.26"/>
    </edge>
    <edge id=":node3_1_0" function="internal">
        <lane id=":node3_1_0_0" index="0" speed="70.00" length="29.35" width="20.00" shape="775.73,3651.03 783.84,3655.06 786.97,3659.73 785.11,3665.03 778.27,3670.97"/>
    </edge>
    <edge id=":node4_0" function="internal">
        <lane id=":node4_0_0" index="0" speed="70.00" length="21.30" width="20.00" shape="490.93,3320.73 489.16,3314.97 486.17,3310.95 481.96,3308.65 476.51,3308.09"/>
    </edge>
    <edge id=":node4_1" function="internal">
        <lane id=":node4_1_0" index="0" speed="70.00" length="47.60" width="20.00" shape="490.93,3320.73 489.87,3311.95 488.38,3297.06 487.03,3282.16 486.39,3273.34"/>
    </edge>
    <edge id=":node4_2" function="internal">
        <lane id=":node4_2_0" index="0" speed="70.00" length="29.97" width="20.00" shape="490.93,3320.73 490.60,3306.31 495.22,3295.36 498.11,3293.10"/>
    </edge>
    <edge id=":node4_3" function="internal">
        <lane id=":node4_3_0" index="0" speed="70.00" length="15.30" width="20.00" shape="490.93,3320.73 494.58,3312.44 499.10,3309.10 499.70,3309.28"/>
    </edge>
    <edge id=":node4_16" function="internal">
        <lane id=":node4_16_0" index="0" speed="70.00" length="23.58" width="20.00" shape="498.11,3293.10 504.80,3287.87 519.34,3283.85"/>
    </edge>
    <edge id=":node4_17" function="internal">
        <lane id=":node4_17_0" index="0" speed="70.00" length="14.05" width="20.00" shape="499.70,3309.28 504.49,3310.72 510.73,3317.28"/>
    </edge>
    <edge id=":node4_4" function="internal">
        <lane id=":node4_4_0" index="0" speed="70.00" length="20.24" width="20.00" shape="522.02,3303.77 516.32,3305.29 512.53,3308.05 510.67,3312.04 510.73,3317.28"/>
    </edge>
    <edge id=":node4_5" function="internal">
        <lane id=":node4_5_0" index="0" speed="70.00" length="45.71" width="20.00" shape="522.02,3303.77 476.51,3308.09"/>
    </edge>
    <edge id=":node4_6" function="internal">
        <lane id=":node4_6_0" index="0" speed="70.00" length="30.12" width="20.00" shape="522.02,3303.77 506.74,3303.63 495.71,3298.51 494.22,3296.28"/>
    </edge>
    <edge id=":node4_7" function="internal">
        <lane id=":node4_7_0" index="0" speed="70.00" length="15.15" width="20.00" shape="522.02,3303.77 513.88,3299.80 510.72,3295.15 510.88,3294.70"/>
    </edge>
    <edge id=":node4_18" function="internal">
        <lane id=":node4_18_0" index="0" speed="70.00" length="24.76" width="20.00" shape="494.22,3296.28 488.93,3288.41 486.39,3273.34"/>
    </edge>
    <edge id=":node4_19" function="internal">
        <lane id=":node4_19_0" index="0" speed="70.00" length="14.20" width="20.00" shape="510.88,3294.70 512.54,3289.84 519.34,3283.85"/>
    </edge>
    <edge id=":node4_8" function="internal">
        <lane id=":node4_8_0" index="0" speed="70.00" length="19.80" width="20.00" shape="506.49,3272.88 507.40,3278.31 509.85,3281.95 513.83,3283.80 519.34,3283.85"/>
    </edge>
    <edge id=":node4_9" function="internal">
        <lane id=":node4_9_0" index="0" speed="70.00" length="44.61" width="20.00" shape="506.49,3272.88 507.08,3281.23 508.33,3295.11 509.72,3308.97 510.73,3317.28"/>
    </edge>
    <edge id=":node4_10" function="internal">
        <lane id=":node4_10_0" index="0" speed="70.00" length="27.98" width="20.00" shape="506.49,3272.88 504.91,3287.70 499.39,3298.52 498.63,3299.06"/>
    </edge>
    <edge id=":node4_11" function="internal">
        <lane id=":node4_11_0" index="0" speed="70.00" length="14.15" width="20.00" shape="506.49,3272.88 501.64,3280.53 497.14,3282.91"/>
    </edge>
    <edge id=":node4_20" function="internal">
        <lane id=":node4_20_0" index="0" speed="70.00" length="24.42" width="20.00" shape="498.63,3299.06 489.92,3305.31 476.51,3308.09"/>
    </edge>
    <edge id=":node4_21" function="internal">
        <lane id=":node4_21_0" index="0" speed="70.00" length="15.20" width="20.00" shape="497.14,3282.91 496.68,3283.16 491.59,3280.76 486.39,3273.34"/>
    </edge>
    <edge id=":node4_12" function="internal">
        <lane id=":node4_12_0" index="0" speed="70.00" length="20.64" width="20.00" shape="475.50,3288.02 480.39,3286.89 483.84,3284.07 485.84,3279.55 486.39,3273.34"/>
    </edge>
    <edge id=":node4_13" function="internal">
        <lane id=":node4_13_0" index="0" speed="70.00" length="44.04" width="20.00" shape="475.50,3288.02 519.34,3283.85"/>
    </edge>
    <edge id=":node4_14" function="internal">
        <lane id=":node4_14_0" index="0" speed="70.00" length="26.62" width="20.00" shape="475.50,3288.02 488.91,3289.28 499.25,3294.58 500.19,3295.80"/>
    </edge>
    <edge id=":node4_15" function="internal">
        <lane id=":node4_15_0" index="0" speed="70.00" length="14.23" width="20.00" shape="475.50,3288.02 483.28,3292.66 485.83,3297.16"/>
    </edge>
    <edge id=":node4_22" function="internal">
        <lane id=":node4_22_0" index="0" speed="70.00" length="24.30" width="20.00" shape="500.19,3295.80 506.52,3303.92 510.73,3317.28"/>
    </edge>
    <edge id=":node4_23" function="internal">
        <lane id=":node4_23_0" index="0" speed="70.00" length="15.12" width="20.00" shape="485.83,3297.16 486.05,3297.55 483.79,3302.70 476.51,3308.09"/>
    </edge>
    <edge id=":node4_0_0" function="internal">
        <lane id=":node4_0_0_0" index="0" speed="70.00" length="29.35" width="20.00" shape="0.50,3332.04 -7.28,3327.40 -10.04,3322.50 -7.78,3317.36 -0.50,3311.96"/>
    </edge>
    <edge id=":node4_1_0" function="internal">
        <lane id=":node4_1_0_0" index="0" speed="70.00" length="29.35" width="20.00" shape="963.66,3224.04 971.80,3228.01 974.96,3232.66 973.14,3237.97 966.34,3243.96"/>
    </edge>
    <edge id=":node5_0" function="internal">
        <lane id=":node5_0_0" index="0" speed="70.00" length="33.18" width="20.00" shape="469.19,2537.33 467.80,2526.70 464.24,2522.04 458.52,2523.34 450.64,2530.62"/>
    </edge>
    <edge id=":node5_1" function="internal">
        <lane id=":node5_1_0" index="0" speed="70.00" length="130.19" width="20.00" shape="469.19,2537.33 466.31,2407.18"/>
    </edge>
    <edge id=":node5_2" function="internal">
        <lane id=":node5_2_0" index="0" speed="70.00" length="131.12" width="20.00" shape="469.19,2537.33 474.55,2516.18 486.63,2474.18 499.18,2432.30 505.94,2411.49"/>
    </edge>
    <edge id=":node5_3" function="internal">
        <lane id=":node5_3_0" index="0" speed="70.00" length="14.68" width="20.00" shape="469.19,2537.33 474.04,2529.68 479.01,2527.05"/>
    </edge>
    <edge id=":node5_16" function="internal">
        <lane id=":node5_16_0" index="0" speed="70.00" length="14.68" width="20.00" shape="479.01,2527.05 484.09,2529.44 489.29,2536.86"/>
    </edge>
    <edge id=":node5_4" function="internal">
        <lane id=":node5_4_0" index="0" speed="70.00" length="120.78" width="20.00" shape="523.60,2421.08 517.22,2440.32 505.51,2478.75 494.27,2517.28 489.29,2536.86"/>
    </edge>
    <edge id=":node5_5" function="internal">
        <lane id=":node5_5_0" index="0" speed="70.00" length="131.62" width="20.00" shape="523.60,2421.08 511.66,2439.52 487.46,2476.09 463.09,2512.53 450.64,2530.62"/>
    </edge>
    <edge id=":node5_6" function="internal">
        <lane id=":node5_6_0" index="0" speed="70.00" length="10.64" width="20.00" shape="523.60,2421.08 513.27,2418.58"/>
    </edge>
    <edge id=":node5_7" function="internal">
        <lane id=":node5_7_0" index="0" speed="70.00" length="15.53" width="20.00" shape="523.60,2421.08 515.59,2425.31 509.98,2425.12 509.49,2424.42"/>
    </edge>
    <edge id=":node5_17" function="internal">
        <lane id=":node5_17_0" index="0" speed="70.00" length="48.32" width="20.00" shape="513.27,2418.58 466.31,2407.18"/>
    </edge>
    <edge id=":node5_18" function="internal">
        <lane id=":node5_18_0" index="0" speed="70.00" length="13.83" width="20.00" shape="509.49,2424.42 506.76,2420.51 505.94,2411.49"/>
    </edge>
    <edge id=":node5_8" function="internal">
        <lane id=":node5_8_0" index="0" speed="70.00" length="43.94" width="20.00" shape="486.41,2406.75 487.94,2421.74 491.71,2427.52 497.71,2424.11 505.94,2411.49"/>
    </edge>
    <edge id=":node5_9" function="internal">
        <lane id=":node5_9_0" index="0" speed="70.00" length="130.14" width="20.00" shape="486.41,2406.75 489.29,2536.86"/>
    </edge>
    <edge id=":node5_10" function="internal">
        <lane id=":node5_10_0" index="0" speed="70.00" length="128.98" width="20.00" shape="486.41,2406.75 481.33,2427.68 469.80,2469.15 457.63,2510.38 450.64,2530.62"/>
    </edge>
    <edge id=":node5_11" function="internal">
        <lane id=":node5_11_0" index="0" speed="70.00" length="14.68" width="20.00" shape="486.41,2406.75 481.54,2414.39 476.57,2417.01"/>
    </edge>
    <edge id=":node5_19" function="internal">
        <lane id=":node5_19_0" index="0" speed="70.00" length="14.68" width="20.00" shape="476.57,2417.01 471.50,2414.61 466.31,2407.18"/>
    </edge>
    <edge id=":node5_12" function="internal">
        <lane id=":node5_12_0" index="0" speed="70.00" length="114.50" width="20.00" shape="435.50,2517.40 441.72,2499.29 452.18,2462.75 462.00,2425.98 466.31,2407.18"/>
    </edge>
    <edge id=":node5_13" function="internal">
        <lane id=":node5_13_0" index="0" speed="70.00" length="127.20" width="20.00" shape="435.50,2517.40 447.56,2499.88 471.06,2464.68 494.39,2429.36 505.94,2411.49"/>
    </edge>
    <edge id=":node5_14" function="internal">
        <lane id=":node5_14_0" index="0" speed="70.00" length="35.42" width="20.00" shape="435.50,2517.40 458.34,2496.30 462.56,2495.34"/>
    </edge>
    <edge id=":node5_15" function="internal">
        <lane id=":node5_15_0" index="0" speed="70.00" length="13.44" width="20.00" shape="435.50,2517.40 444.24,2515.03 448.48,2516.13"/>
    </edge>
    <edge id=":node5_20" function="internal">
        <lane id=":node5_20_0" index="0" speed="70.00" length="60.78" width="20.00" shape="462.56,2495.34 474.92,2492.52 485.23,2506.04 489.29,2536.86"/>
    </edge>
    <edge id=":node5_21" function="internal">
        <lane id=":node5_21_0" index="0" speed="70.00" length="15.92" width="20.00" shape="448.48,2516.13 449.68,2516.44 451.81,2521.64 450.64,2530.62"/>
    </edge>
    <edge id=":node5_0_0" function="internal">
        <lane id=":node5_0_0_0" index="0" speed="70.00" length="29.35" width="20.00" shape="430.57,2553.61 421.83,2555.98 416.39,2554.57 414.26,2549.37 415.43,2540.39"/>
    </edge>
    <edge id=":node5_1_0" function="internal">
        <lane id=":node5_1_0_0" index="0" speed="70.00" length="29.35" width="20.00" shape="696.17,2061.20 704.18,2056.98 709.80,2057.17 713.01,2061.77 713.83,2070.80"/>
    </edge>
    <edge id=":node6_0" function="internal">
        <lane id=":node6_0_0" index="0" speed="70.00" length="40.49" width="20.00" shape="446.90,1495.57 445.77,1480.32 443.13,1469.38 438.98,1462.75 433.32,1460.41"/>
    </edge>
    <edge id=":node6_1" function="internal">
        <lane id=":node6_1_0" index="0" speed="70.00" length="66.84" width="20.00" shape="446.90,1495.57 445.65,1428.73"/>
    </edge>
    <edge id=":node6_2" function="internal">
        <lane id=":node6_2_0" index="0" speed="70.00" length="38.10" width="20.00" shape="446.90,1495.57 449.50,1469.33 456.33,1459.78"/>
    </edge>
    <edge id=":node6_3" function="internal">
        <lane id=":node6_3_0" index="0" speed="70.00" length="14.68" width="20.00" shape="446.90,1495.57 451.76,1487.92 456.73,1485.30"/>
    </edge>
    <edge id=":node6_16" function="internal">
        <lane id=":node6_16_0" index="0" speed="70.00" length="46.25" width="20.00" shape="456.33,1459.78 458.70,1456.47 474.51,1456.98 496.93,1470.85"/>
    </edge>
    <edge id=":node6_17" function="internal">
        <lane id=":node6_17_0" index="0" speed="70.00" length="14.68" width="20.00" shape="456.73,1485.30 461.81,1487.71 466.99,1495.14"/>
    </edge>
    <edge id=":node6_4" function="internal">
        <lane id=":node6_4_0" index="0" speed="70.00" length="29.31" width="20.00" shape="484.37,1486.55 476.59,1481.73 471.09,1481.55 467.90,1486.02 466.99,1495.14"/>
    </edge>
    <edge id=":node6_5" function="internal">
        <lane id=":node6_5_0" index="0" speed="70.00" length="57.44" width="20.00" shape="484.37,1486.55 475.45,1481.17 459.26,1472.36 442.86,1464.12 433.32,1460.41"/>
    </edge>
    <edge id=":node6_6" function="internal">
        <lane id=":node6_6_0" index="0" speed="70.00" length="33.36" width="20.00" shape="484.37,1486.55 467.57,1471.44 460.74,1463.13"/>
    </edge>
    <edge id=":node6_7" function="internal">
        <lane id=":node6_7_0" index="0" speed="70.00" length="12.89" width="20.00" shape="484.37,1486.55 481.62,1477.92 482.43,1474.17"/>
    </edge>
    <edge id=":node6_18" function="internal">
        <lane id=":node6_18_0" index="0" speed="70.00" length="38.27" width="20.00" shape="460.74,1463.13 455.51,1456.76 448.21,1442.53 445.65,1428.73"/>
    </edge>
    <edge id=":node6_19" function="internal">
        <lane id=":node6_19_0" index="0" speed="70.00" length="16.46" width="20.00" shape="482.43,1474.17 482.80,1472.43 487.90,1470.07 496.93,1470.85"/>
    </edge>
    <edge id=":node6_8" function="internal">
        <lane id=":node6_8_0" index="0" speed="70.00" length="53.97" width="20.00" shape="465.75,1428.47 467.79,1437.73 473.66,1447.89 483.37,1458.93 496.93,1470.85"/>
    </edge>
    <edge id=":node6_9" function="internal">
        <lane id=":node6_9_0" index="0" speed="70.00" length="66.68" width="20.00" shape="465.75,1428.47 466.99,1495.14"/>
    </edge>
    <edge id=":node6_10" function="internal">
        <lane id=":node6_10_0" index="0" speed="70.00" length="28.22" width="20.00" shape="465.75,1428.47 463.89,1442.79 457.86,1452.89 456.12,1453.89"/>
    </edge>
    <edge id=":node6_11" function="internal">
        <lane id=":node6_11_0" index="0" speed="70.00" length="14.68" width="20.00" shape="465.75,1428.47 460.83,1436.07 455.84,1438.65"/>
    </edge>
    <edge id=":node6_20" function="internal">
        <lane id=":node6_20_0" index="0" speed="70.00" length="24.20" width="20.00" shape="456.12,1453.89 447.67,1458.76 433.32,1460.41"/>
    </edge>
    <edge id=":node6_21" function="internal">
        <lane id=":node6_21_0" index="0" speed="70.00" length="14.68" width="20.00" shape="455.84,1438.65 450.78,1436.20 445.65,1428.73"/>
    </edge>
    <edge id=":node6_12" function="internal">
        <lane id=":node6_12_0" index="0" speed="70.00" length="19.01" width="20.00" shape="433.89,1440.32 439.10,1439.72 442.79,1437.59 444.98,1433.93 445.65,1428.73"/>
    </edge>
    <edge id=":node6_13" function="internal">
        <lane id=":node6_13_0" index="0" speed="70.00" length="70.11" width="20.00" shape="433.89,1440.32 445.30,1444.71 465.82,1454.47 486.13,1464.78 496.93,1470.85"/>
    </edge>
    <edge id=":node6_14" function="internal">
        <lane id=":node6_14_0" index="0" speed="70.00" length="37.17" width="20.00" shape="433.89,1440.32 447.94,1444.09 458.14,1454.48 460.96,1462.03"/>
    </edge>
    <edge id=":node6_15" function="internal">
        <lane id=":node6_15_0" index="0" speed="70.00" length="17.54" width="20.00" shape="433.89,1440.32 441.28,1445.56 443.65,1450.65 442.30,1453.17"/>
    </edge>
    <edge id=":node6_22" function="internal">
        <lane id=":node6_22_0" index="0" speed="70.00" length="33.88" width="20.00" shape="460.96,1462.03 464.49,1471.49 466.99,1495.14"/>
    </edge>