<?xml version="1.0" encoding="UTF-8"?>

<!-- generated on Sat Dec 23 18:40:50 2017 by Netedit Version 0.30.0
<?xml version="1.0" encoding="UTF-8"?>

<configuration xmlns:xsi="http://www.w3.org/2001/XMLSchema-instance" xsi:noNamespaceSchemaLocation="http://sumo.dlr.de/xsd/netconvertConfiguration.xsd">

    <input>
        <sumo-net-file value="/Users/hanmaokun/devel/sumo_di/didi_contest/di.net.xml"/>
    </input>

    <output>
        <output-file value="/Users/hanmaokun/devel/sumo_di/didi_contest/di.net.xml"/>
    </output>

    <processing>
        <no-turnarounds value="true"/>
        <offset.disable-normalization value="true"/>
        <lefthand value="false"/>
        <junctions.corner-detail value="0"/>
        <rectangular-lane-cut value="false"/>
    </processing>

</configuration>
-->

<net version="0.27" xmlns:xsi="http://www.w3.org/2001/XMLSchema-instance" xsi:noNamespaceSchemaLocation="http://sumo.dlr.de/xsd/net_file.xsd">

    <location netOffset="-520955.00,-53371.00" convBoundary="0.00,0.00,965.00,5351.00" origBoundary="520955.00,53371.00,521920.00,58722.00" projParameter="!"/>

    <edge id=":node1_0" function="internal">
        <lane id=":node1_0_0" index="0" speed="70.00" length="23.17" width="20.00" shape="714.59,4769.51 713.09,4762.93 709.95,4759.24 705.17,4758.44 698.76,4760.53"/>
    </edge>
    <edge id=":node1_1" function="internal">
        <lane id=":node1_1_0" index="0" speed="70.00" length="49.22" width="20.00" shape="714.59,4769.51 709.21,4720.58"/>
    </edge>
    <edge id=":node1_2" function="internal">
        <lane id=":node1_2_0" index="0" speed="70.00" length="59.58" width="20.00" shape="714.59,4769.51 715.15,4751.38 720.34,4738.33 730.17,4730.36 744.63,4727.46"/>
    </edge>
    <edge id=":node1_3" function="internal">
        <lane id=":node1_3_0" index="0" speed="70.00" length="14.45" width="20.00" shape="714.59,4769.51 718.96,4761.57 723.56,4758.76"/>
    </edge>
    <edge id=":node1_16" function="internal">
        <lane id=":node1_16_0" index="0" speed="70.00" length="14.90" width="20.00" shape="723.56,4758.76 723.75,4758.64 728.97,4760.72 734.61,4767.81"/>
    </edge>
    <edge id=":node1_4" function="internal">
        <lane id=":node1_4_0" index="0" speed="70.00" length="25.86" width="20.00" shape="745.07,4747.55 739.86,4748.92 736.38,4752.75 734.63,4759.04 734.61,4767.81"/>
    </edge>
    <edge id=":node1_5" function="internal">
        <lane id=":node1_5_0" index="0" speed="70.00" length="48.13" width="20.00" shape="745.07,4747.55 736.35,4749.32 721.72,4753.26 707.19,4757.59 698.76,4760.53"/>
    </edge>
    <edge id=":node1_6" function="internal">
        <lane id=":node1_6_0" index="0" speed="70.00" length="22.15" width="20.00" shape="745.07,4747.55 730.94,4746.12 723.73,4742.77"/>
    </edge>
    <edge id=":node1_7" function="internal">
        <lane id=":node1_7_0" index="0" speed="70.00" length="12.58" width="20.00" shape="745.07,4747.55 737.42,4742.69 735.78,4739.57"/>
    </edge>
    <edge id=":node1_17" function="internal">
        <lane id=":node1_17_0" index="0" speed="70.00" length="27.65" width="20.00" shape="723.73,4742.77 720.26,4741.15 713.01,4732.64 709.21,4720.58"/>
    </edge>
    <edge id=":node1_18" function="internal">
        <lane id=":node1_18_0" index="0" speed="70.00" length="16.77" width="20.00" shape="735.78,4739.57 734.80,4737.72 737.20,4732.64 744.63,4727.46"/>
    </edge>
    <edge id=":node1_8" function="internal">
        <lane id=":node1_8_0" index="0" speed="70.00" length="20.35" width="20.00" shape="729.08,4717.58 730.63,4722.01 733.74,4725.14 738.40,4726.95 744.63,4727.46"/>
    </edge>
    <edge id=":node1_9" function="internal">
        <lane id=":node1_9_0" index="0" speed="70.00" length="50.53" width="20.00" shape="729.08,4717.58 734.61,4767.81"/>
    </edge>
    <edge id=":node1_10" function="internal">
        <lane id=":node1_10_0" index="0" speed="70.00" length="56.47" width="20.00" shape="729.08,4717.58 728.67,4730.09 723.48,4741.42 713.51,4751.57 698.76,4760.53"/>
    </edge>
    <edge id=":node1_11" function="internal">
        <lane id=":node1_11_0" index="0" speed="70.00" length="15.17" width="20.00" shape="729.08,4717.58 725.24,4725.78 720.64,4729.02 720.18,4728.87"/>
    </edge>
    <edge id=":node1_19" function="internal">
        <lane id=":node1_19_0" index="0" speed="70.00" length="14.19" width="20.00" shape="720.18,4728.87 715.30,4727.28 709.21,4720.58"/>
    </edge>
    <edge id=":node1_12" function="internal">
        <lane id=":node1_12_0" index="0" speed="70.00" length="30.99" width="20.00" shape="689.94,4742.47 699.03,4737.25 705.27,4731.86 708.66,4726.31 709.21,4720.58"/>
    </edge>
    <edge id=":node1_13" function="internal">
        <lane id=":node1_13_0" index="0" speed="70.00" length="56.75" width="20.00" shape="689.94,4742.47 699.68,4739.21 717.10,4734.18 734.61,4729.54 744.63,4727.46"/>
    </edge>
    <edge id=":node1_14" function="internal">
        <lane id=":node1_14_0" index="0" speed="70.00" length="37.11" width="20.00" shape="689.94,4742.47 708.05,4736.58 721.53,4738.83 724.38,4742.19"/>
    </edge>
    <edge id=":node1_15" function="internal">
        <lane id=":node1_15_0" index="0" speed="70.00" length="15.92" width="20.00" shape="689.94,4742.47 698.92,4743.68 703.38,4747.09 703.37,4748.33"/>
    </edge>
    <edge id=":node1_20" function="internal">
        <lane id=":node1_20_0" index="0" speed="70.00" length="28.31" width="20.00" shape="724.38,4742.19 730.38,4749.25 734.61,4767.81"/>
    </edge>
    <edge id=":node1_21" function="internal">
        <lane id=":node1_21_0" index="0" speed="70.00" length="13.43" width="20.00" shape="703.37,4748.33 703.33,4752.71 698.76,4760.53"/>
    </edge>
    <edge id=":node1_0_0" function="internal">
        <lane id=":node1_0_0_0" index="0" speed="70.00" length="29.35" width="20.00" shape="345.41,4933.03 336.43,4931.82 331.97,4928.41 332.02,4922.79 336.59,4914.97"/>
    </edge>
    <edge id=":node1_1_0" function="internal">
        <lane id=":node1_1_0_0" index="0" speed="70.00" length="29.35" width="20.00" shape="784.01,5350.15 779.64,5358.09 774.85,5361.01 769.63,5358.94 763.99,5351.85"/>
    </edge>
    <edge id=":node1_2_0" function="internal">
        <lane id=":node1_2_0_0" index="0" speed="70.00" length="29.35" width="20.00" shape="813.78,4725.95 821.43,4730.81 824.05,4735.78 821.64,4740.86 814.22,4746.05"/>
    </edge>
    <edge id=":node2_0" function="internal">
        <lane id=":node2_0_0" index="0" speed="70.00" length="32.02" width="20.00" shape="622.60,4146.43 619.95,4136.53 615.89,4132.45 610.41,4134.20 603.51,4141.79"/>
    </edge>
    <edge id=":node2_1" function="internal">
        <lane id=":node2_1_0" index="0" speed="70.00" length="103.51" width="20.00" shape="622.60,4146.43 607.33,4044.06"/>
    </edge>
    <edge id=":node2_2" function="internal">
        <lane id=":node2_2_0" index="0" speed="70.00" length="103.75" width="20.00" shape="622.60,4146.43 625.61,4129.16 633.19,4095.68 641.43,4062.34 646.44,4045.53"/>
    </edge>
    <edge id=":node2_3" function="internal">
        <lane id=":node2_3_0" index="0" speed="70.00" length="14.68" width="20.00" shape="622.60,4146.43 626.44,4138.23 631.03,4135.00"/>
    </edge>
    <edge id=":node2_16" function="internal">
        <lane id=":node2_16_0" index="0" speed="70.00" length="14.68" width="20.00" shape="631.03,4135.00 636.38,4136.73 642.47,4143.44"/>
    </edge>
    <edge id=":node2_4" function="internal">
        <lane id=":node2_4_0" index="0" speed="70.00" length="89.11" width="20.00" shape="663.07,4056.82 658.56,4071.40 651.44,4099.82 644.98,4128.40 642.47,4143.44"/>
    </edge>
    <edge id=":node2_5" function="internal">
        <lane id=":node2_5_0" index="0" speed="70.00" length="103.77" width="20.00" shape="663.07,4056.82 603.51,4141.79"/>
    </edge>
    <edge id=":node2_6" function="internal">
        <lane id=":node2_6_0" index="0" speed="70.00" length="43.57" width="20.00" shape="663.07,4056.82 642.99,4080.46 631.19,4084.71"/>
    </edge>
    <edge id=":node2_7" function="internal">
        <lane id=":node2_7_0" index="0" speed="70.00" length="11.18" width="20.00" shape="663.07,4056.82 654.68,4060.23 652.58,4059.95"/>
    </edge>
    <edge id=":node2_17" function="internal">
        <lane id=":node2_17_0" index="0" speed="70.00" length="52.44" width="20.00" shape="631.19,4084.71 627.01,4086.21 615.12,4074.08 607.33,4044.06"/>
    </edge>
    <edge id=":node2_18" function="internal">
        <lane id=":node2_18_0" index="0" speed="70.00" length="18.17" width="20.00" shape="652.58,4059.95 649.11,4059.49 646.37,4054.59 646.44,4045.53"/>
    </edge>
    <edge id=":node2_8" function="internal">
        <lane id=":node2_8_0" index="0" speed="70.00" length="33.12" width="20.00" shape="627.22,4041.13 629.90,4051.48 634.00,4055.67 639.52,4053.68 646.44,4045.53"/>
    </edge>
    <edge id=":node2_9" function="internal">
        <lane id=":node2_9_0" index="0" speed="70.00" length="103.44" width="20.00" shape="627.22,4041.13 642.47,4143.44"/>
    </edge>
    <edge id=":node2_10" function="internal">
        <lane id=":node2_10_0" index="0" speed="70.00" length="30.28" width="20.00" shape="627.22,4041.13 624.23,4058.37 621.44,4070.84"/>
    </edge>
    <edge id=":node2_11" function="internal">
        <lane id=":node2_11_0" index="0" speed="70.00" length="14.68" width="20.00" shape="627.22,4041.13 623.34,4049.32 618.74,4052.53"/>
    </edge>
    <edge id=":node2_19" function="internal">
        <lane id=":node2_19_0" index="0" speed="70.00" length="73.21" width="20.00" shape="621.44,4070.84 616.73,4091.79 608.55,4125.05 603.51,4141.79"/>
    </edge>
    <edge id=":node2_20" function="internal">
        <lane id=":node2_20_0" index="0" speed="70.00" length="14.68" width="20.00" shape="618.74,4052.53 613.40,4050.78 607.33,4044.06"/>
    </edge>
    <edge id=":node2_12" function="internal">
        <lane id=":node2_12_0" index="0" speed="70.00" length="88.34" width="20.00" shape="587.23,4130.00 591.71,4115.56 598.65,4087.36 604.91,4059.00 607.33,4044.06"/>
    </edge>
    <edge id=":node2_13" function="internal">
        <lane id=":node2_13_0" index="0" speed="70.00" length="103.16" width="20.00" shape="587.23,4130.00 646.44,4045.53"/>
    </edge>
    <edge id=":node2_14" function="internal">
        <lane id=":node2_14_0" index="0" speed="70.00" length="40.17" width="20.00" shape="587.23,4130.00 607.20,4108.04 617.19,4104.84"/>
    </edge>
    <edge id=":node2_15" function="internal">
        <lane id=":node2_15_0" index="0" speed="70.00" length="14.56" width="20.00" shape="587.23,4130.00 595.72,4126.84 601.15,4127.73"/>
    </edge>
    <edge id=":node2_21" function="internal">
        <lane id=":node2_21_0" index="0" speed="70.00" length="52.49" width="20.00" shape="617.19,4104.84 623.06,4102.97 634.82,4114.76 642.47,4143.44"/>
    </edge>
    <edge id=":node2_22" function="internal">
        <lane id=":node2_22_0" index="0" speed="70.00" length="14.80" width="20.00" shape="601.15,4127.73 601.26,4127.75 603.86,4132.74 603.51,4141.79"/>
    </edge>
    <edge id=":node2_0_0" function="internal">
        <lane id=":node2_0_0_0" index="0" speed="70.00" length="29.35" width="20.00" shape="583.14,4169.90 574.65,4173.05 569.10,4172.14 566.51,4167.15 566.86,4158.10"/>
    </edge>
    <edge id=":node2_1_0" function="internal">
        <lane id=":node2_1_0_0" index="0" speed="70.00" length="29.35" width="20.00" shape="671.69,4008.35 680.08,4004.94 685.65,4005.69 688.39,4010.59 688.31,4019.65"/>
    </edge>
    <edge id=":node3_0" function="internal">
        <lane id=":node3_0_0" index="0" speed="70.00" length="19.72" width="20.00" shape="558.52,3712.96 556.95,3707.70 554.09,3704.39 549.93,3703.03 544.48,3703.62"/>
    </edge>
    <edge id=":node3_1" function="internal">
        <lane id=":node3_1_0" index="0" speed="70.00" length="44.14" width="20.00" shape="558.52,3712.96 551.56,3669.37"/>
    </edge>
    <edge id=":node3_2" function="internal">
        <lane id=":node3_2_0" index="0" speed="70.00" length="53.10" width="20.00" shape="558.52,3712.96 558.35,3697.99 562.79,3686.72 571.84,3679.14 585.50,3675.26"/>
    </edge>
    <edge id=":node3_3" function="internal">
        <lane id=":node3_3_0" index="0" speed="70.00" length="14.68" width="20.00" shape="558.52,3712.96 562.39,3704.77 567.00,3701.55"/>
    </edge>
    <edge id=":node3_16" function="internal">
        <lane id=":node3_16_0" index="0" speed="70.00" length="14.68" width="20.00" shape="567.00,3701.55 572.34,3703.31 578.41,3710.03"/>
    </edge>
    <edge id=":node3_4" function="internal">
        <lane id=":node3_4_0" index="0" speed="70.00" length="20.23" width="20.00" shape="588.04,3695.20 583.09,3696.68 579.83,3699.64 578.27,3704.09 578.41,3710.03"/>
    </edge>
    <edge id=":node3_5" function="internal">
        <lane id=":node3_5_0" index="0" speed="70.00" length="44.37" width="20.00" shape="588.04,3695.20 579.82,3696.60 566.22,3699.18 552.63,3701.87 544.48,3703.62"/>
    </edge>
    <edge id=":node3_6" function="internal">
        <lane id=":node3_6_0" index="0" speed="70.00" length="27.00" width="20.00" shape="588.04,3695.20 574.03,3695.08 563.27,3690.73 562.36,3689.69"/>
    </edge>
    <edge id=":node3_7" function="internal">
        <lane id=":node3_7_0" index="0" speed="70.00" length="14.21" width="20.00" shape="588.04,3695.20 579.93,3691.16 577.06,3686.89"/>
    </edge>
    <edge id=":node3_17" function="internal">
        <lane id=":node3_17_0" index="0" speed="70.00" length="23.46" width="20.00" shape="562.36,3689.69 555.78,3682.16 551.56,3669.37"/>
    </edge>
    <edge id=":node3_18" function="internal">
        <lane id=":node3_18_0" index="0" speed="70.00" length="15.15" width="20.00" shape="577.06,3686.89 576.80,3686.50 578.66,3681.19 585.50,3675.26"/>
    </edge>
    <edge id=":node3_8" function="internal">
        <lane id=":node3_8_0" index="0" speed="70.00" length="19.12" width="20.00" shape="571.36,3665.93 572.96,3670.59 575.84,3673.70 580.03,3675.26 585.50,3675.26"/>
    </edge>
    <edge id=":node3_9" function="internal">
        <lane id=":node3_9_0" index="0" speed="70.00" length="44.66" width="20.00" shape="571.36,3665.93 578.41,3710.03"/>
    </edge>
    <edge id=":node3_10" function="internal">
        <lane id=":node3_10_0" index="0" speed="70.00" length="51.90" width="20.00" shape="571.36,3665.93 571.61,3679.35 567.21,3690.10 558.16,3698.19 544.48,3703.62"/>
    </edge>
    <edge id=":node3_11" function="internal">
        <lane id=":node3_11_0" index="0" speed="70.00" length="14.89" width="20.00" shape="571.36,3665.93 567.70,3674.21 563.18,3677.55 562.98,3677.49"/>
    </edge>
    <edge id=":node3_19" function="internal">
        <lane id=":node3_19_0" index="0" speed="70.00" length="14.47" width="20.00" shape="562.98,3677.49 557.80,3675.93 551.56,3669.37"/>
    </edge>
    <edge id=":node3_12" function="internal">
        <lane id=":node3_12_0" index="0" speed="70.00" length="21.32" width="20.00" shape="539.50,3684.15 545.51,3681.88 549.52,3678.66 551.54,3674.49 551.56,3669.37"/>
    </edge>
    <edge id=":node3_13" function="internal">
        <lane id=":node3_13_0" index="0" speed="70.00" length="46.86" width="20.00" shape="539.50,3684.15 548.04,3682.32 562.46,3679.47 576.90,3676.74 585.50,3675.26"/>
    </edge>
    <edge id=":node3_14" function="internal">
        <lane id=":node3_14_0" index="0" speed="70.00" length="30.42" width="20.00" shape="539.50,3684.15 554.61,3682.52 566.13,3686.29 568.16,3688.64"/>
    </edge>
    <edge id=":node3_15" function="internal">
        <lane id=":node3_15_0" index="0" speed="70.00" length="15.17" width="20.00" shape="539.50,3684.15 548.05,3687.15 551.73,3691.39 551.62,3691.88"/>
    </edge>
    <edge id=":node3_20" function="internal">
        <lane id=":node3_20_0" index="0" speed="70.00" length="24.23" width="20.00" shape="568.16,3688.64 574.07,3695.46 578.41,3710.03"/>
    </edge>
    <edge id=":node3_21" function="internal">
        <lane id=":node3_21_0" index="0" speed="70.00" length="14.18" width="20.00" shape="551.62,3691.88 550.54,3696.88 544.48,3703.62"/>
    </edge>
    <edge id=":node3_0_0" function="internal">
        <lane id=":node3_0_0_0" index="0" speed="70.00" length="29.35" width="20.00" shape="434.49,3731.74 425.94,3728.74 422.26,3724.49 423.45,3719.00 429.51,3712.26"/>
    </edge>
    <edge id=":node3_1_0" function="internal">
        <lane id=":node3_1_0_0" index="0" speed="70.00" length="29.35" width="20.00" shape="775.73,3651.03 783.84,3655.06 786.97,3659.73 785.11,3665.03 778.27,3670.97"/>
    </edge>
    <edge id=":node4_0" function="internal">
        <lane id=":node4_0_0" index="0" speed="70.00" length="21.30" width="20.00" shape="490.93,3320.73 489.16,3314.97 486.17,3310.95 481.96,3308.65 476.51,3308.09"/>
    </edge>
    <edge id=":node4_1" function="internal">
        <lane id=":node4_1_0" index="0" speed="70.00" length="47.60" width="20.00" shape="490.93,3320.73 489.87,3311.95 488.38,3297.06 487.03,3282.16 486.39,3273.34"/>
    </edge>
    <edge id=":node4_2" function="internal">
        <lane id=":node4_2_0" index="0" speed="70.00" length="53.55" width="20.00" shape="490.93,3320.73 490.60,3306.31 495.22,3295.36 504.80,3287.87 519.34,3283.85"/>
    </edge>
    <edge id=":node4_3" function="internal">
        <lane id=":node4_3_0" index="0" speed="70.00" length="15.30" width="20.00" shape="490.93,3320.73 494.58,3312.44 499.10,3309.10 499.70,3309.28"/>
    </edge>
    <edge id=":node4_16" function="internal">
        <lane id=":node4_16_0" index="0" speed="70.00" length="14.05" width="20.00" shape="499.70,3309.28 504.49,3310.72 510.73,3317.28"/>
    </edge>
    <edge id=":node4_4" function="internal">
        <lane id=":node4_4_0" index="0" speed="70.00" length="20.24" width="20.00" shape="522.02,3303.77 516.32,3305.29 512.53,3308.05 510.67,3312.04 510.73,3317.28"/>
    </edge>
    <edge id=":node4_5" function="internal">
        <lane id=":node4_5_0" index="0" speed="70.00" length="45.71" width="20.00" shape="522.02,3303.77 476.51,3308.09"/>
    </edge>
    <edge id=":node4_6" function="internal">
        <lane id=":node4_6_0" index="0" speed="70.00" length="54.88" width="20.00" shape="522.02,3303.77 506.74,3303.63 495.71,3298.51 488.93,3288.41 486.39,3273.34"/>
    </edge>
    <edge id=":node4_7" function="internal">
        <lane id=":node4_7_0" index="0" speed="70.00" length="15.15" width="20.00" shape="522.02,3303.77 513.88,3299.80 510.72,3295.15 510.88,3294.70"/>
    </edge>
    <edge id=":node4_17" function="internal">
        <lane id=":node4_17_0" index="0" speed="70.00" length="14.20" width="20.00" shape="510.88,3294.70 512.54,3289.84 519.34,3283.85"/>
    </edge>
    <edge id=":node4_8" function="internal">
        <lane id=":node4_8_0" index="0" speed="70.00" length="19.80" width="20.00" shape="506.49,3272.88 507.40,3278.31 509.85,3281.95 513.83,3283.80 519.34,3283.85"/>
    </edge>
    <edge id=":node4_9" function="internal">
        <lane id=":node4_9_0" index="0" speed="70.00" length="44.61" width="20.00" shape="506.49,3272.88 507.08,3281.23 508.33,3295.11 509.72,3308.97 510.73,3317.28"/>
    </edge>
    <edge id=":node4_10" function="internal">
        <lane id=":node4_10_0" index="0" speed="70.00" length="52.40" width="20.00" shape="506.49,3272.88 504.91,3287.70 499.39,3298.52 489.92,3305.31 476.51,3308.09"/>
    </edge>
    <edge id=":node4_11" function="internal">
        <lane id=":node4_11_0" index="0" speed="70.00" length="14.15" width="20.00" shape="506.49,3272.88 501.64,3280.53 497.14,3282.91"/>
    </edge>
    <edge id=":node4_18" function="internal">
        <lane id=":node4_18_0" index="0" speed="70.00" length="15.20" width="20.00" shape="497.14,3282.91 496.68,3283.16 491.59,3280.76 486.39,3273.34"/>
    </edge>
    <edge id=":node4_12" function="internal">
        <lane id=":node4_12_0" index="0" speed="70.00" length="20.64" width="20.00" shape="475.50,3288.02 480.39,3286.89 483.84,3284.07 485.84,3279.55 486.39,3273.34"/>
    </edge>
    <edge id=":node4_13" function="internal">
        <lane id=":node4_13_0" index="0" speed="70.00" length="44.04" width="20.00" shape="475.50,3288.02 519.34,3283.85"/>
    </edge>
    <edge id=":node4_14" function="internal">
        <lane id=":node4_14_0" index="0" speed="70.00" length="50.93" width="20.00" shape="475.50,3288.02 488.91,3289.28 499.25,3294.58 506.52,3303.92 510.73,3317.28"/>
    </edge>
    <edge id=":node4_15" function="internal">
        <lane id=":node4_15_0" index="0" speed="70.00" length="14.23" width="20.00" shape="475.50,3288.02 483.28,3292.66 485.83,3297.16"/>
    </edge>
    <edge id=":node4_19" function="internal">
        <lane id=":node4_19_0" index="0" speed="70.00" length="15.12" width="20.00" shape="485.83,3297.16 486.05,3297.55 483.79,3302.70 476.51,3308.09"/>
    </edge>
    <edge id=":node4_0_0" function="internal">
        <lane id=":node4_0_0_0" index="0" speed="70.00" length="29.35" width="20.00" shape="0.50,3332.04 -7.28,3327.40 -10.04,3322.50 -7.78,3317.36 -0.50,3311.96"/>
    </edge>
    <edge id=":node4_1_0" function="internal">
        <lane id=":node4_1_0_0" index="0" speed="70.00" length="29.35" width="20.00" shape="963.66,3224.04 971.80,3228.01 974.96,3232.66 973.14,3237.97 966.34,3243.96"/>
    </edge>
    <edge id=":node5_0" function="internal">
        <lane id=":node5_0_0" index="0" speed="70.00" length="33.46" width="20.00" shape="469.21,2537.96 467.80,2527.21 464.24,2522.52 458.51,2523.89 450.61,2531.31"/>
    </edge>
    <edge id=":node5_1" function="internal">
        <lane id=":node5_1_0" index="0" speed="70.00" length="130.81" width="20.00" shape="469.21,2537.96 466.31,2407.18"/>
    </edge>
    <edge id=":node5_2" function="internal">
        <lane id=":node5_2_0" index="0" speed="70.00" length="131.72" width="20.00" shape="469.21,2537.96 474.56,2516.71 486.64,2474.50 499.18,2432.40 505.94,2411.49"/>
    </edge>
    <edge id=":node5_3" function="internal">
        <lane id=":node5_3_0" index="0" speed="70.00" length="14.68" width="20.00" shape="469.21,2537.96 474.06,2530.31 479.02,2527.68"/>
    </edge>
    <edge id=":node5_16" function="internal">
        <lane id=":node5_16_0" index="0" speed="70.00" length="14.68" width="20.00" shape="479.02,2527.68 484.10,2530.07 489.30,2537.49"/>
    </edge>
    <edge id=":node5_4" function="internal">
        <lane id=":node5_4_0" index="0" speed="70.00" length="121.38" width="20.00" shape="523.60,2421.08 517.22,2440.42 505.51,2479.06 494.28,2517.81 489.30,2537.49"/>
    </edge>
    <edge id=":node5_5" function="internal">
        <lane id=":node5_5_0" index="0" speed="70.00" length="132.21" width="20.00" shape="523.60,2421.08 511.65,2439.63 487.43,2476.42 463.06,2513.11 450.61,2531.31"/>
    </edge>
    <edge id=":node5_6" function="internal">
        <lane id=":node5_6_0" index="0" speed="70.00" length="10.63" width="20.00" shape="523.60,2421.08 513.27,2418.58"/>
    </edge>
    <edge id=":node5_7" function="internal">
        <lane id=":node5_7_0" index="0" speed="70.00" length="12.63" width="20.00" shape="523.60,2421.08 515.59,2425.31 512.02,2425.19"/>
    </edge>
    <edge id=":node5_17" function="internal">
        <lane id=":node5_17_0" index="0" speed="70.00" length="48.32" width="20.00" shape="513.27,2418.58 466.31,2407.18"/>
    </edge>
    <edge id=":node5_18" function="internal">
        <lane id=":node5_18_0" index="0" speed="70.00" length="16.72" width="20.00" shape="512.02,2425.19 509.98,2425.12 506.76,2420.51 505.94,2411.49"/>
    </edge>
    <edge id=":node5_8" function="internal">
        <lane id=":node5_8_0" index="0" speed="70.00" length="43.94" width="20.00" shape="486.41,2406.75 487.94,2421.74 491.71,2427.52 497.71,2424.11 505.94,2411.49"/>
    </edge>
    <edge id=":node5_9" function="internal">
        <lane id=":node5_9_0" index="0" speed="70.00" length="130.77" width="20.00" shape="486.41,2406.75 489.30,2537.49"/>
    </edge>
    <edge id=":node5_10" function="internal">
        <lane id=":node5_10_0" index="0" speed="70.00" length="129.66" width="20.00" shape="486.41,2406.75 481.32,2427.79 469.77,2469.48 457.59,2510.95 450.61,2531.31"/>
    </edge>
    <edge id=":node5_11" function="internal">
        <lane id=":node5_11_0" index="0" speed="70.00" length="14.68" width="20.00" shape="486.41,2406.75 481.54,2414.39 476.57,2417.01"/>
    </edge>
    <edge id=":node5_19" function="internal">
        <lane id=":node5_19_0" index="0" speed="70.00" length="14.68" width="20.00" shape="476.57,2417.01 471.50,2414.61 466.31,2407.18"/>
    </edge>
    <edge id=":node5_12" function="internal">
        <lane id=":node5_12_0" index="0" speed="70.00" length="115.33" width="20.00" shape="435.36,2518.22 441.59,2499.97 452.10,2463.15 461.98,2426.10 466.31,2407.18"/>
    </edge>
    <edge id=":node5_13" function="internal">
        <lane id=":node5_13_0" index="0" speed="70.00" length="127.96" width="20.00" shape="435.36,2518.22 447.43,2500.56 470.98,2465.08 494.36,2429.49 505.94,2411.49"/>
    </edge>
    <edge id=":node5_14" function="internal">
        <lane id=":node5_14_0" index="0" speed="70.00" length="35.95" width="20.00" shape="435.36,2518.22 458.26,2496.69 462.66,2495.64"/>
    </edge>
    <edge id=":node5_15" function="internal">
        <lane id=":node5_15_0" index="0" speed="70.00" length="10.28" width="20.00" shape="435.36,2518.22 444.09,2515.78 445.27,2516.07"/>
    </edge>
    <edge id=":node5_20" function="internal">
        <lane id=":node5_20_0" index="0" speed="70.00" length="61.09" width="20.00" shape="462.66,2495.64 474.88,2492.72 485.23,2506.32 489.30,2537.49"/>
    </edge>
    <edge id=":node5_21" function="internal">
        <lane id=":node5_21_0" index="0" speed="70.00" length="19.08" width="20.00" shape="445.27,2516.07 449.54,2517.14 451.71,2522.32 450.61,2531.31"/>
    </edge>
    <edge id=":node5_0_0" function="internal">
        <lane id=":node5_0_0_0" index="0" speed="70.00" length="29.35" width="20.00" shape="412.62,2575.55 403.90,2577.99 398.45,2576.62 396.28,2571.44 397.38,2562.45"/>
    </edge>
    <edge id=":node5_1_0" function="internal">
        <lane id=":node5_1_0_0" index="0" speed="70.00" length="29.35" width="20.00" shape="696.17,2061.20 704.18,2056.98 709.80,2057.17 713.01,2061.77 713.83,2070.80"/>
    </edge>
    <edge id=":node6_0" function="internal">
        <lane id=":node6_0_0" index="0" speed="70.00" length="40.49" width="20.00" shape="446.90,1495.57 445.77,1480.32 443.13,1469.38 438.98,1462.75 433.32,1460.41"/>
    </edge>
    <edge id=":node6_1" function="internal">
        <lane id=":node6_1_0" index="0" speed="70.00" length="66.84" width="20.00" shape="446.90,1495.57 445.65,1428.73"/>
    </edge>
    <edge id=":node6_2" function="internal">
        <lane id=":node6_2_0" index="0" speed="70.00" length="84.35" width="20.00" shape="446.90,1495.57 449.50,1469.33 458.70,1456.47 474.51,1456.98 496.93,1470.85"/>
    </edge>
    <edge id=":node6_3" function="internal">
        <lane id=":node6_3_0" index="0" speed="70.00" length="14.68" width="20.00" shape="446.90,1495.57 451.76,1487.92 456.73,1485.30"/>
    </edge>
    <edge id=":node6_16" function="internal">
        <lane id=":node6_16_0" index="0" speed="70.00" length="14.68" width="20.00" shape="456.73,1485.30 461.81,1487.71 466.99,1495.14"/>
    </edge>
    <edge id=":node6_4" function="internal">
        <lane id=":node6_4_0" index="0" speed="70.00" length="29.31" width="20.00" shape="484.37,1486.55 476.59,1481.73 471.09,1481.55 467.90,1486.02 466.99,1495.14"/>
    </edge>
    <edge id=":node6_5" function="internal">
        <lane id=":node6_5_0" index="0" speed="70.00" length="57.44" width="20.00" shape="484.37,1486.55 475.45,1481.17 459.26,1472.36 442.86,1464.12 433.32,1460.41"/>
    </edge>
    <edge id=":node6_6" function="internal">
        <lane id=":node6_6_0" index="0" speed="70.00" length="71.62" width="20.00" shape="484.37,1486.55 467.57,1471.44 455.51,1456.76 448.21,1442.53 445.65,1428.73"/>
    </edge>
    <edge id=":node6_7" function="internal">
        <lane id=":node6_7_0" index="0" speed="70.00" length="12.89" width="20.00" shape="484.37,1486.55 481.62,1477.92 482.43,1474.17"/>
    </edge>
    <edge id=":node6_17" function="internal">
        <lane id=":node6_17_0" index="0" speed="70.00" length="16.46" width="20.00" shape="482.43,1474.17 482.80,1472.43 487.90,1470.07 496.93,1470.85"/>
    </edge>
    <edge id=":node6_8" function="internal">
        <lane id=":node6_8_0" index="0" speed="70.00" length="53.97" width="20.00" shape="465.75,1428.47 467.79,1437.73 473.66,1447.89 483.37,1458.93 496.93,1470.85"/>
    </edge>
    <edge id=":node6_9" function="internal">
        <lane id=":node6_9_0" index="0" speed="70.00" length="66.68" width="20.00" shape="465.75,1428.47 466.99,1495.14"/>
    </edge>
    <edge id=":node6_10" function="internal">
        <lane id=":node6_10_0" index="0" speed="70.00" length="52.41" width="20.00" shape="465.75,1428.47 463.89,1442.79 457.86,1452.89 447.67,1458.76 433.32,1460.41"/>
    </edge>
    <edge id=":node6_11" function="internal">
        <lane id=":node6_11_0" index="0" speed="70.00" length="14.68" width="20.00" shape="465.75,1428.47 460.83,1436.07 455.84,1438.65"/>
    </edge>
    <edge id=":node6_18" function="internal">
        <lane id=":node6_18_0" index="0" speed="70.00" length="14.68" width="20.00" shape="455.84,1438.65 450.78,1436.20 445.65,1428.73"/>
    </edge>
    <edge id=":node6_12" function="internal">
        <lane id=":node6_12_0" index="0" speed="70.00" length="19.01" width="20.00" shape="433.89,1440.32 439.10,1439.72 442.79,1437.59 444.98,1433.93 445.65,1428.73"/>
    </edge>
    <edge id=":node6_13" function="internal">
        <lane id=":node6_13_0" index="0" speed="70.00" length="70.11" width="20.00" shape="433.89,1440.32 445.30,1444.71 465.82,1454.47 486.13,1464.78 496.93,1470.85"/>
    </edge>
    <edge id=":node6_14" function="internal">